
This summary file was generated by TurbSim (v2.00.07a-bjj, 14-Jun-2016) on 16-Feb-2019 at 10:06:24.


Runtime Options:

1671031109  Random seed #1
    RANLUX  Type of random number generator
         F  Output binary HH turbulence parameters?
         F  Output formatted turbulence parameters?
         F  Output AeroDyn HH files?
         T  Output AeroDyn FF files?
         F  Output BLADED FF files?
         T  Output tower data?
         F  Output formatted FF files?
         F  Output coherent turbulence time step file?
         T  Clockwise rotation when looking downwind?
 0 -  NONE  IEC turbulence models scaled to exact specified standard deviation


Turbine/Model Specifications:

        31  Vertical grid-point matrix dimension
        31  Horizontal grid-point matrix dimension
     0.050  Time step [seconds]
   630.000  Analysis time [seconds]
   630.000  Usable output time [seconds]
    90.000  Hub height [m]
   145.000  Grid height [m]
   145.000  Grid width [m]
     0.000  Vertical flow angle [degrees]
     0.000  Horizontal flow angle [degrees]


Meteorological Boundary Conditions:

    IECKAI  IEC Kaimal spectral model
         1  IEC standard: IEC 61400-1 Ed. 3: 2005
         B  IEC turbulence characteristic
       NTM  IEC Normal Turbulence Model
       N/A  IEC Extreme Turbulence Model (ETM) "c" parameter [m/s]
       PL   Wind profile type
    90.000  Reference height [m]
     5.000  Reference wind speed [m/s]
       N/A  Jet height [m]
     0.200  Power law exponent
     0.030  Surface roughness length [m]


Non-IEC Meteorological Boundary Conditions:

       N/A  Site latitude [degrees]
       N/A  Gradient Richardson number
       N/A  Friction or shear velocity [m/s]
       N/A  Mixing layer depth [m]
       N/A  Mean hub u'w' Reynolds stress
       N/A  Mean hub u'v' Reynolds stress
       N/A  Mean hub v'w' Reynolds stress


Spatial Coherence Models:

   GENERAL  u-component coherence model
   GENERAL  v-component coherence model
   GENERAL  w-component coherence model
(   12.000, 0.353E-03)  u-component coherence parameters
(*********,  0.00    )  v-component coherence parameters
(*********,  0.00    )  w-component coherence parameters
     0.000  Coherence exponent


You have requested that the following file(s) be generated:

   05_a.bts (AeroDyn/TurbSim full-field wind file)


Turbulence Simulation Scaling Parameter Summary:

   Turbulence model used                            =  IEC Kaimal
   Turbulence characteristic                        =  B
   IEC turbulence type                              =  Normal Turbulence Model
   IEC standard                                     =  IEC 61400-1 Ed. 3: 2005
   Mean wind speed at hub height                    =    5.000 m/s
   Expected value of turbulence intensity at 15 m/s =   14.000%
   Characteristic value of standard deviation       =    1.309 m/s
   Turbulence scale                                 =   42.000 m
   u-component integral scale                       =  340.200 m
   Coherency scale                                  =  340.200 m
   Characteristic value of hub turbulence intensity =   26.180%
   Gradient Richardson number                       =    0.000

   Wind profile type                                =  Power law
   Power law exponent                               =    0.200
   Mean shear across rotor disk                     =    0.014 (m/s)/m
   Assumed rotor diameter                           =  145.000 m
   Surface roughness length                         =    0.030 m

   Nyquist frequency of turbulent wind field        =   10.000 Hz

   Number of time steps in the FFT                  =    12600
   Number of time steps output                      =    12600
   Number of points simulated                       =      964


Mean Flow Angles:

   Vertical   =   0.0 degrees
   Horizontal =   0.0 degrees

Mean Wind Speed Profile:

   Height    Wind Speed   Horizontal Angle  Vertical Angle  U-comp (X)   V-comp (Y)   W-comp (Z)
     (m)        (m/s)         (degrees)       (degrees)       (m/s)        (m/s)        (m/s)   
   ------    ----------   ----------------  --------------  ----------   ----------   ----------
    162.5        5.63            0.00            0.00          5.63         0.00         0.00
    157.7        5.59            0.00            0.00          5.59         0.00         0.00
    152.8        5.56            0.00            0.00          5.56         0.00         0.00
    148.0        5.52            0.00            0.00          5.52         0.00         0.00
    143.2        5.49            0.00            0.00          5.49         0.00         0.00
    138.3        5.45            0.00            0.00          5.45         0.00         0.00
    133.5        5.41            0.00            0.00          5.41         0.00         0.00
    128.7        5.37            0.00            0.00          5.37         0.00         0.00
    123.8        5.33            0.00            0.00          5.33         0.00         0.00
    119.0        5.29            0.00            0.00          5.29         0.00         0.00
    114.2        5.24            0.00            0.00          5.24         0.00         0.00
    109.3        5.20            0.00            0.00          5.20         0.00         0.00
    104.5        5.15            0.00            0.00          5.15         0.00         0.00
     99.7        5.10            0.00            0.00          5.10         0.00         0.00
     94.8        5.05            0.00            0.00          5.05         0.00         0.00
     90.0        5.00            0.00            0.00          5.00         0.00         0.00
     85.2        4.95            0.00            0.00          4.95         0.00         0.00
     80.3        4.89            0.00            0.00          4.89         0.00         0.00
     75.5        4.83            0.00            0.00          4.83         0.00         0.00
     70.7        4.76            0.00            0.00          4.76         0.00         0.00
     65.8        4.70            0.00            0.00          4.70         0.00         0.00
     61.0        4.63            0.00            0.00          4.63         0.00         0.00
     56.2        4.55            0.00            0.00          4.55         0.00         0.00
     51.3        4.47            0.00            0.00          4.47         0.00         0.00
     46.5        4.38            0.00            0.00          4.38         0.00         0.00
     41.7        4.29            0.00            0.00          4.29         0.00         0.00
     36.8        4.18            0.00            0.00          4.18         0.00         0.00
     32.0        4.07            0.00            0.00          4.07         0.00         0.00
     27.2        3.93            0.00            0.00          3.93         0.00         0.00
     22.3        3.78            0.00            0.00          3.78         0.00         0.00
     17.5        3.60            0.00            0.00          3.60         0.00         0.00
     12.7        3.38            0.00            0.00          3.38         0.00         0.00
      7.8        3.07            0.00            0.00          3.07         0.00         0.00
      3.0        2.53            0.00            0.00          2.53         0.00         0.00


Harvested Random Seeds after Generation of the Random Numbers:

    169290450 K 1
            0 K 2


Hub-Height Simulated Turbulence Statistical Summary:

   Type of Wind        Min (m/s)   Mean (m/s)    Max (m/s)  Sigma (m/s)       TI (%)
   ----------------    ---------   ----------    ---------  -----------       ------
   Longitudinal (u)         2.41         5.00         8.14        0.919       18.386
   Lateral (v)             -3.13        -0.00         3.08        1.007       20.134
   Vertical (w)            -2.42         0.00         2.03        0.642       12.838
   U component              2.41         5.00         8.14        0.919       18.386
   V component             -3.13        -0.00         3.08        1.007       20.134
   W component             -2.42         0.00         2.03        0.642       12.838
   Horizontal (U&V)         2.62         5.10         8.15        0.923       18.091
   Total                    2.64         5.14         8.15        0.919       17.879

                       Min Reynolds     Mean Reynolds    Max Reynolds    Correlation
   Product             Stress (m/s)^2   Stress (m/s)^2   Stress (m/s)^2  Coefficient
   ----------------    --------------   --------------   --------------  -----------
   u'w'                     -5.099            -0.025             2.881        -0.042
   u'v'                     -4.237             0.253             5.549         0.273
   v'w'                     -2.787             0.021             3.489         0.032


   Friction Velocity (Ustar)  =      0.158 m/s
   Maximum Instantaneous TKE  =      6.217 (m/s)^2
   Maximum Instantaneous CTKE =      3.249 (m/s)^2


Grid Point Variance Summary:

   Y-coord  -72.50  -67.67  -62.83  -58.00  -53.17  -48.33  -43.50  -38.67  -33.83  -29.00  -24.17  -19.33  -14.50   -9.67   -4.83    0.00    4.83    9.67   14.50   19.33   24.17   29.00   33.83   38.67   43.50   48.33   53.17   58.00   62.83   67.67   72.50

   Height   Standard deviation at grid points for the u component:
   162.50    0.929   0.934   0.958   0.993   1.005   1.010   1.005   1.023   1.083   1.135   1.155   1.025   0.926   0.981   0.943   0.945   0.948   0.990   1.069   1.046   1.048   1.019   0.991   1.124   1.037   1.050   1.034   1.040   1.019   1.009   1.064
   157.67    1.080   1.012   1.029   0.990   1.047   1.010   1.008   1.048   1.010   1.044   1.137   1.161   1.033   1.024   0.876   0.950   0.933   0.985   0.954   1.087   1.068   1.052   0.983   1.059   1.069   1.032   0.938   1.106   1.063   1.037   1.103
   152.83    1.156   1.157   1.066   1.143   1.064   1.055   0.981   0.930   0.963   1.104   1.129   1.202   1.076   1.040   0.915   0.964   1.005   0.957   0.987   1.110   1.083   1.060   1.100   1.108   1.080   1.027   0.989   1.080   1.067   1.079   1.211
   148.00    1.182   1.239   1.166   1.082   1.064   0.978   0.984   1.051   1.082   1.132   1.186   1.157   1.042   1.044   0.987   1.015   1.039   1.000   0.951   1.074   1.095   1.026   1.117   1.048   0.964   1.040   1.031   1.120   1.159   1.132   1.175
   143.17    1.178   1.236   1.144   1.013   1.037   1.012   0.981   1.063   1.186   1.169   1.087   1.050   1.056   1.034   1.048   1.082   1.056   1.067   1.057   1.092   1.062   1.051   1.040   1.053   1.024   1.024   1.034   1.099   1.080   1.126   1.108
   138.33    1.165   1.136   1.151   1.166   1.163   1.130   1.068   1.095   1.043   1.039   0.967   0.991   1.027   1.084   1.087   1.088   1.050   1.032   1.062   1.020   1.012   0.961   0.933   0.926   0.879   0.986   1.052   1.020   1.095   1.133   1.064
   133.50    1.195   1.165   1.113   1.118   1.117   1.040   1.054   1.054   1.020   1.029   0.937   1.053   1.058   1.055   1.008   1.004   0.964   1.035   1.070   1.002   1.026   0.914   0.859   0.844   0.828   0.994   1.063   0.944   1.072   1.111   1.036
   128.67    1.123   1.183   1.145   1.118   1.190   1.169   1.101   1.014   1.015   1.063   1.083   0.999   1.050   1.007   0.992   0.960   1.040   1.073   1.012   1.040   1.061   0.921   0.923   0.979   0.904   0.994   0.985   0.940   1.065   1.079   1.011
   123.83    1.090   1.178   1.195   1.188   1.217   1.198   1.145   1.070   0.975   0.947   0.932   0.933   0.983   0.960   0.957   0.956   1.038   1.064   1.111   1.017   1.008   0.949   0.933   1.045   1.003   0.955   1.038   1.015   1.073   1.075   1.052
   119.00    1.149   1.209   1.302   1.211   1.292   1.236   1.135   1.002   0.990   0.879   0.851   0.831   0.856   0.866   0.844   0.964   1.102   1.107   1.099   1.010   0.977   0.981   1.013   1.100   1.105   1.032   1.072   1.034   1.076   1.059   1.048
   114.17    1.125   1.052   1.205   1.236   1.155   1.129   0.971   0.948   0.928   0.942   0.893   0.859   0.863   0.871   0.938   1.056   1.117   1.109   1.050   0.993   1.005   1.030   0.987   1.062   1.120   1.130   1.030   0.983   0.992   1.059   1.002
   109.33    1.035   1.053   1.083   1.128   1.066   0.994   0.894   0.813   0.861   0.855   0.875   0.753   0.842   0.853   0.931   1.070   1.092   1.017   1.036   0.953   0.932   1.054   1.128   1.086   1.025   1.043   1.062   1.065   0.966   0.909   0.982
   104.50    1.010   1.056   1.043   1.025   0.970   0.830   0.778   0.740   0.847   0.821   0.852   0.807   0.825   0.877   0.859   0.972   0.992   0.980   0.865   0.897   0.891   0.921   1.015   1.022   1.013   0.982   1.005   1.045   1.020   1.043   0.976
    99.67    0.987   1.042   1.075   1.103   1.027   0.822   0.713   0.816   0.896   0.912   0.878   0.793   0.840   0.899   0.929   0.953   0.940   0.872   0.930   0.853   0.835   0.863   0.890   0.909   0.968   0.939   0.999   1.023   1.055   0.990   0.979
    94.83    1.000   1.067   1.048   1.042   0.974   0.914   0.787   0.838   0.909   0.878   0.906   0.801   0.845   0.932   0.906   0.952   0.948   0.954   0.881   0.886   0.857   0.830   0.902   0.910   0.952   0.887   0.895   0.995   0.951   0.941   1.044
    90.00    1.019   1.047   0.988   0.976   1.015   0.963   0.867   0.862   0.855   0.899   0.800   0.814   0.864   0.862   0.861   0.919   0.976   0.982   0.953   0.926   0.802   0.778   0.893   0.967   0.916   0.910   1.089   1.006   0.982   1.014   1.051
    85.17    1.089   1.157   1.022   1.024   0.997   0.985   0.930   0.924   0.901   0.923   0.844   0.791   0.851   0.848   0.913   0.938   0.919   0.959   0.851   0.827   0.850   0.784   0.829   0.885   0.874   0.947   1.037   1.110   1.034   1.041   1.132
    80.33    1.074   1.058   1.042   1.069   1.024   0.988   1.019   0.899   0.891   0.891   0.889   0.927   0.917   0.901   0.846   0.927   0.902   0.899   0.859   0.834   0.850   0.949   0.978   0.902   0.898   0.958   1.070   1.125   1.082   1.084   1.188
    75.50    0.999   1.098   1.052   1.089   1.113   1.096   1.001   0.981   0.999   0.972   1.027   1.009   1.086   1.020   1.001   0.952   0.913   0.918   0.925   0.884   0.875   1.046   0.977   0.951   1.064   1.026   1.119   1.101   1.169   1.135   1.159
    70.67    0.966   1.049   1.063   1.171   1.165   1.163   1.111   0.978   0.989   0.918   1.005   1.061   1.054   1.108   1.063   1.033   0.966   0.987   0.990   0.962   1.022   1.026   1.054   1.018   1.096   1.031   1.177   1.148   1.150   1.188   1.289
    65.83    0.965   1.030   1.110   1.251   1.266   1.214   1.144   1.071   1.090   0.979   1.022   0.985   1.046   1.063   1.087   1.139   1.110   1.143   1.069   0.965   1.047   1.050   1.006   1.026   1.133   1.219   1.295   1.206   1.249   1.232   1.231
    61.00    1.056   1.154   1.227   1.298   1.214   1.247   1.258   1.155   1.045   1.054   0.983   1.014   1.036   0.997   1.111   1.217   1.145   1.087   1.023   0.983   1.164   1.073   1.183   1.175   1.260   1.197   1.255   1.301   1.197   1.249   1.255
    56.17    1.114   1.072   1.215   1.220   1.270   1.252   1.177   1.126   1.054   1.014   0.952   0.962   0.974   1.019   1.148   1.130   1.141   1.181   1.094   1.042   1.080   1.153   1.104   1.127   1.156   1.215   1.205   1.174   1.247   1.201   1.323
    51.33    1.065   1.098   1.169   1.214   1.238   1.233   1.308   1.357   1.161   1.074   1.042   1.006   1.001   1.076   1.105   1.033   1.077   1.131   1.190   1.022   0.999   0.939   0.993   1.030   1.062   1.244   1.131   1.153   1.194   1.187   1.283
    46.50    1.143   1.032   1.065   1.235   1.226   1.392   1.332   1.375   1.197   1.107   1.084   1.076   1.039   1.026   1.088   1.125   1.006   1.062   1.037   0.968   0.958   0.940   1.130   1.128   1.152   1.236   1.248   1.284   1.214   1.248   1.297
    41.67    1.138   1.055   1.096   1.241   1.272   1.356   1.441   1.392   1.334   1.289   1.079   1.074   1.031   1.004   1.022   1.051   1.034   1.049   1.102   1.022   1.008   0.965   1.045   1.119   1.138   1.094   1.162   1.273   1.300   1.278   1.291
    36.83    1.139   1.157   1.309   1.258   1.328   1.357   1.413   1.444   1.321   1.320   1.113   1.109   1.189   1.144   1.028   1.056   1.054   1.065   1.089   1.063   1.073   1.062   1.012   1.036   1.017   1.091   1.177   1.082   1.228   1.262   1.324
    32.00    1.160   1.190   1.231   1.312   1.300   1.465   1.380   1.457   1.311   1.168   1.146   1.270   1.211   1.138   1.070   1.067   1.027   1.083   1.075   1.119   1.051   1.076   1.178   1.068   1.025   1.104   1.036   1.117   1.130   1.223   1.174
    27.17    1.240   1.258   1.354   1.316   1.264   1.374   1.457   1.474   1.258   1.256   1.286   1.242   1.236   1.270   1.280   1.117   1.030   1.006   1.069   1.170   1.034   1.168   1.152   1.084   1.076   0.960   0.974   0.964   1.021   1.097   1.286
    22.33    1.274   1.146   1.320   1.367   1.340   1.404   1.458   1.389   1.284   1.309   1.314   1.347   1.228   1.324   1.264   1.135   1.148   1.146   1.144   1.025   1.020   1.089   1.136   1.027   1.005   0.984   0.945   0.990   1.111   1.148   1.248
    17.50    1.183   1.227   1.285   1.268   1.282   1.370   1.293   1.333   1.372   1.475   1.435   1.478   1.390   1.278   1.110   1.163   1.243   1.156   1.186   1.308   1.201   1.250   1.079   1.111   1.059   1.024   1.009   1.035   1.119   1.182   1.281

   Height   Standard deviation at grid points for the v component:
   162.50    1.007   1.007   1.007   1.007   1.007   1.007   1.007   1.007   1.007   1.007   1.007   1.007   1.007   1.007   1.007   1.007   1.007   1.007   1.007   1.007   1.007   1.007   1.007   1.007   1.007   1.007   1.007   1.007   1.007   1.007   1.007
   157.67    1.007   1.007   1.007   1.007   1.007   1.007   1.007   1.007   1.007   1.007   1.007   1.007   1.007   1.007   1.007   1.007   1.007   1.007   1.007   1.007   1.007   1.007   1.007   1.007   1.007   1.007   1.007   1.007   1.007   1.007   1.007
   152.83    1.007   1.007   1.007   1.007   1.007   1.007   1.007   1.007   1.007   1.007   1.007   1.007   1.007   1.007   1.007   1.007   1.007   1.007   1.007   1.007   1.007   1.007   1.007   1.007   1.007   1.007   1.007   1.007   1.007   1.007   1.007
   148.00    1.007   1.007   1.007   1.007   1.007   1.007   1.007   1.007   1.007   1.007   1.007   1.007   1.007   1.007   1.007   1.007   1.007   1.007   1.007   1.007   1.007   1.007   1.007   1.007   1.007   1.007   1.007   1.007   1.007   1.007   1.007
   143.17    1.007   1.007   1.007   1.007   1.007   1.007   1.007   1.007   1.007   1.007   1.007   1.007   1.007   1.007   1.007   1.007   1.007   1.007   1.007   1.007   1.007   1.007   1.007   1.007   1.007   1.007   1.007   1.007   1.007   1.007   1.007
   138.33    1.007   1.007   1.007   1.007   1.007   1.007   1.007   1.007   1.007   1.007   1.007   1.007   1.007   1.007   1.007   1.007   1.007   1.007   1.007   1.007   1.007   1.007   1.007   1.007   1.007   1.007   1.007   1.007   1.007   1.007   1.007
   133.50    1.007   1.007   1.007   1.007   1.007   1.007   1.007   1.007   1.007   1.007   1.007   1.007   1.007   1.007   1.007   1.007   1.007   1.007   1.007   1.007   1.007   1.007   1.007   1.007   1.007   1.007   1.007   1.007   1.007   1.007   1.007
   128.67    1.007   1.007   1.007   1.007   1.007   1.007   1.007   1.007   1.007   1.007   1.007   1.007   1.007   1.007   1.007   1.007   1.007   1.007   1.007   1.007   1.007   1.007   1.007   1.007   1.007   1.007   1.007   1.007   1.007   1.007   1.007
   123.83    1.007   1.007   1.007   1.007   1.007   1.007   1.007   1.007   1.007   1.007   1.007   1.007   1.007   1.007   1.007   1.007   1.007   1.007   1.007   1.007   1.007   1.007   1.007   1.007   1.007   1.007   1.007   1.007   1.007   1.007   1.007
   119.00    1.007   1.007   1.007   1.007   1.007   1.007   1.007   1.007   1.007   1.007   1.007   1.007   1.007   1.007   1.007   1.007   1.007   1.007   1.007   1.007   1.007   1.007   1.007   1.007   1.007   1.007   1.007   1.007   1.007   1.007   1.007
   114.17    1.007   1.007   1.007   1.007   1.007   1.007   1.007   1.007   1.007   1.007   1.007   1.007   1.007   1.007   1.007   1.007   1.007   1.007   1.007   1.007   1.007   1.007   1.007   1.007   1.007   1.007   1.007   1.007   1.007   1.007   1.007
   109.33    1.007   1.007   1.007   1.007   1.007   1.007   1.007   1.007   1.007   1.007   1.007   1.007   1.007   1.007   1.007   1.007   1.007   1.007   1.007   1.007   1.007   1.007   1.007   1.007   1.007   1.007   1.007   1.007   1.007   1.007   1.007
   104.50    1.007   1.007   1.007   1.007   1.007   1.007   1.007   1.007   1.007   1.007   1.007   1.007   1.007   1.007   1.007   1.007   1.007   1.007   1.007   1.007   1.007   1.007   1.007   1.007   1.007   1.007   1.007   1.007   1.007   1.007   1.007
    99.67    1.007   1.007   1.007   1.007   1.007   1.007   1.007   1.007   1.007   1.007   1.007   1.007   1.007   1.007   1.007   1.007   1.007   1.007   1.007   1.007   1.007   1.007   1.007   1.007   1.007   1.007   1.007   1.007   1.007   1.007   1.007
    94.83    1.007   1.007   1.007   1.007   1.007   1.007   1.007   1.007   1.007   1.007   1.007   1.007   1.007   1.007   1.007   1.007   1.007   1.007   1.007   1.007   1.007   1.007   1.007   1.007   1.007   1.007   1.007   1.007   1.007   1.007   1.007
    90.00    1.007   1.007   1.007   1.007   1.007   1.007   1.007   1.007   1.007   1.007   1.007   1.007   1.007   1.007   1.007   1.007   1.007   1.007   1.007   1.007   1.007   1.007   1.007   1.007   1.007   1.007   1.007   1.007   1.007   1.007   1.007
    85.17    1.007   1.007   1.007   1.007   1.007   1.007   1.007   1.007   1.007   1.007   1.007   1.007   1.007   1.007   1.007   1.007   1.007   1.007   1.007   1.007   1.007   1.007   1.007   1.007   1.007   1.007   1.007   1.007   1.007   1.007   1.007
    80.33    1.007   1.007   1.007   1.007   1.007   1.007   1.007   1.007   1.007   1.007   1.007   1.007   1.007   1.007   1.007   1.007   1.007   1.007   1.007   1.007   1.007   1.007   1.007   1.007   1.007   1.007   1.007   1.007   1.007   1.007   1.007
    75.50    1.007   1.007   1.007   1.007   1.007   1.007   1.007   1.007   1.007   1.007   1.007   1.007   1.007   1.007   1.007   1.007   1.007   1.007   1.007   1.007   1.007   1.007   1.007   1.007   1.007   1.007   1.007   1.007   1.007   1.007   1.007
    70.67    1.007   1.007   1.007   1.007   1.007   1.007   1.007   1.007   1.007   1.007   1.007   1.007   1.007   1.007   1.007   1.007   1.007   1.007   1.007   1.007   1.007   1.007   1.007   1.007   1.007   1.007   1.007   1.007   1.007   1.007   1.007
    65.83    1.007   1.007   1.007   1.007   1.007   1.007   1.007   1.007   1.007   1.007   1.007   1.007   1.007   1.007   1.007   1.007   1.007   1.007   1.007   1.007   1.007   1.007   1.007   1.007   1.007   1.007   1.007   1.007   1.007   1.007   1.007
    61.00    1.007   1.007   1.007   1.007   1.007   1.007   1.007   1.007   1.007   1.007   1.007   1.007   1.007   1.007   1.007   1.007   1.007   1.007   1.007   1.007   1.007   1.007   1.007   1.007   1.007   1.007   1.007   1.007   1.007   1.007   1.007
    56.17    1.007   1.007   1.007   1.007   1.007   1.007   1.007   1.007   1.007   1.007   1.007   1.007   1.007   1.007   1.007   1.007   1.007   1.007   1.007   1.007   1.007   1.007   1.007   1.007   1.007   1.007   1.007   1.007   1.007   1.007   1.007
    51.33    1.007   1.007   1.007   1.007   1.007   1.007   1.007   1.007   1.007   1.007   1.007   1.007   1.007   1.007   1.007   1.007   1.007   1.007   1.007   1.007   1.007   1.007   1.007   1.007   1.007   1.007   1.007   1.007   1.007   1.007   1.007
    46.50    1.007   1.007   1.007   1.007   1.007   1.007   1.007   1.007   1.007   1.007   1.007   1.007   1.007   1.007   1.007   1.007   1.007   1.007   1.007   1.007   1.007   1.007   1.007   1.007   1.007   1.007   1.007   1.007   1.007   1.007   1.007
    41.67    1.007   1.007   1.007   1.007   1.007   1.007   1.007   1.007   1.007   1.007   1.007   1.007   1.007   1.007   1.007   1.007   1.007   1.007   1.007   1.007   1.007   1.007   1.007   1.007   1.007   1.007   1.007   1.007   1.007   1.007   1.007
    36.83    1.007   1.007   1.007   1.007   1.007   1.007   1.007   1.007   1.007   1.007   1.007   1.007   1.007   1.007   1.007   1.007   1.007   1.007   1.007   1.007   1.007   1.007   1.007   1.007   1.007   1.007   1.007   1.007   1.007   1.007   1.007
    32.00    1.007   1.007   1.007   1.007   1.007   1.007   1.007   1.007   1.007   1.007   1.007   1.007   1.007   1.007   1.007   1.007   1.007   1.007   1.007   1.007   1.007   1.007   1.007   1.007   1.007   1.007   1.007   1.007   1.007   1.007   1.007
    27.17    1.007   1.007   1.007   1.007   1.007   1.007   1.007   1.007   1.007   1.007   1.007   1.007   1.007   1.007   1.007   1.007   1.007   1.007   1.007   1.007   1.007   1.007   1.007   1.007   1.007   1.007   1.007   1.007   1.007   1.007   1.007
    22.33    1.007   1.007   1.007   1.007   1.007   1.007   1.007   1.007   1.007   1.007   1.007   1.007   1.007   1.007   1.007   1.007   1.007   1.007   1.007   1.007   1.007   1.007   1.007   1.007   1.007   1.007   1.007   1.007   1.007   1.007   1.007
    17.50    1.007   1.007   1.007   1.007   1.007   1.007   1.007   1.007   1.007   1.007   1.007   1.007   1.007   1.007   1.007   1.007   1.007   1.007   1.007   1.007   1.007   1.007   1.007   1.007   1.007   1.007   1.007   1.007   1.007   1.007   1.007

   Height   Standard deviation at grid points for the w component:
   162.50    0.642   0.642   0.642   0.642   0.642   0.642   0.642   0.642   0.642   0.642   0.642   0.642   0.642   0.642   0.642   0.642   0.642   0.642   0.642   0.642   0.642   0.642   0.642   0.642   0.642   0.642   0.642   0.642   0.642   0.642   0.642
   157.67    0.642   0.642   0.642   0.642   0.642   0.642   0.642   0.642   0.642   0.642   0.642   0.642   0.642   0.642   0.642   0.642   0.642   0.642   0.642   0.642   0.642   0.642   0.642   0.642   0.642   0.642   0.642   0.642   0.642   0.642   0.642
   152.83    0.642   0.642   0.642   0.642   0.642   0.642   0.642   0.642   0.642   0.642   0.642   0.642   0.642   0.642   0.642   0.642   0.642   0.642   0.642   0.642   0.642   0.642   0.642   0.642   0.642   0.642   0.642   0.642   0.642   0.642   0.642
   148.00    0.642   0.642   0.642   0.642   0.642   0.642   0.642   0.642   0.642   0.642   0.642   0.642   0.642   0.642   0.642   0.642   0.642   0.642   0.642   0.642   0.642   0.642   0.642   0.642   0.642   0.642   0.642   0.642   0.642   0.642   0.642
   143.17    0.642   0.642   0.642   0.642   0.642   0.642   0.642   0.642   0.642   0.642   0.642   0.642   0.642   0.642   0.642   0.642   0.642   0.642   0.642   0.642   0.642   0.642   0.642   0.642   0.642   0.642   0.642   0.642   0.642   0.642   0.642
   138.33    0.642   0.642   0.642   0.642   0.642   0.642   0.642   0.642   0.642   0.642   0.642   0.642   0.642   0.642   0.642   0.642   0.642   0.642   0.642   0.642   0.642   0.642   0.642   0.642   0.642   0.642   0.642   0.642   0.642   0.642   0.642
   133.50    0.642   0.642   0.642   0.642   0.642   0.642   0.642   0.642   0.642   0.642   0.642   0.642   0.642   0.642   0.642   0.642   0.642   0.642   0.642   0.642   0.642   0.642   0.642   0.642   0.642   0.642   0.642   0.642   0.642   0.642   0.642
   128.67    0.642   0.642   0.642   0.642   0.642   0.642   0.642   0.642   0.642   0.642   0.642   0.642   0.642   0.642   0.642   0.642   0.642   0.642   0.642   0.642   0.642   0.642   0.642   0.642   0.642   0.642   0.642   0.642   0.642   0.642   0.642
   123.83    0.642   0.642   0.642   0.642   0.642   0.642   0.642   0.642   0.642   0.642   0.642   0.642   0.642   0.642   0.642   0.642   0.642   0.642   0.642   0.642   0.642   0.642   0.642   0.642   0.642   0.642   0.642   0.642   0.642   0.642   0.642
   119.00    0.642   0.642   0.642   0.642   0.642   0.642   0.642   0.642   0.642   0.642   0.642   0.642   0.642   0.642   0.642   0.642   0.642   0.642   0.642   0.642   0.642   0.642   0.642   0.642   0.642   0.642   0.642   0.642   0.642   0.642   0.642
   114.17    0.642   0.642   0.642   0.642   0.642   0.642   0.642   0.642   0.642   0.642   0.642   0.642   0.642   0.642   0.642   0.642   0.642   0.642   0.642   0.642   0.642   0.642   0.642   0.642   0.642   0.642   0.642   0.642   0.642   0.642   0.642
   109.33    0.642   0.642   0.642   0.642   0.642   0.642   0.642   0.642   0.642   0.642   0.642   0.642   0.642   0.642   0.642   0.642   0.642   0.642   0.642   0.642   0.642   0.642   0.642   0.642   0.642   0.642   0.642   0.642   0.642   0.642   0.642
   104.50    0.642   0.642   0.642   0.642   0.642   0.642   0.642   0.642   0.642   0.642   0.642   0.642   0.642   0.642   0.642   0.642   0.642   0.642   0.642   0.642   0.642   0.642   0.642   0.642   0.642   0.642   0.642   0.642   0.642   0.642   0.642
    99.67    0.642   0.642   0.642   0.642   0.642   0.642   0.642   0.642   0.642   0.642   0.642   0.642   0.642   0.642   0.642   0.642   0.642   0.642   0.642   0.642   0.642   0.642   0.642   0.642   0.642   0.642   0.642   0.642   0.642   0.642   0.642
    94.83    0.642   0.642   0.642   0.642   0.642   0.642   0.642   0.642   0.642   0.642   0.642   0.642   0.642   0.642   0.642   0.642   0.642   0.642   0.642   0.642   0.642   0.642   0.642   0.642   0.642   0.642   0.642   0.642   0.642   0.642   0.642
    90.00    0.642   0.642   0.642   0.642   0.642   0.642   0.642   0.642   0.642   0.642   0.642   0.642   0.642   0.642   0.642   0.642   0.642   0.642   0.642   0.642   0.642   0.642   0.642   0.642   0.642   0.642   0.642   0.642   0.642   0.642   0.642
    85.17    0.642   0.642   0.642   0.642   0.642   0.642   0.642   0.642   0.642   0.642   0.642   0.642   0.642   0.642   0.642   0.642   0.642   0.642   0.642   0.642   0.642   0.642   0.642   0.642   0.642   0.642   0.642   0.642   0.642   0.642   0.642
    80.33    0.642   0.642   0.642   0.642   0.642   0.642   0.642   0.642   0.642   0.642   0.642   0.642   0.642   0.642   0.642   0.642   0.642   0.642   0.642   0.642   0.642   0.642   0.642   0.642   0.642   0.642   0.642   0.642   0.642   0.642   0.642
    75.50    0.642   0.642   0.642   0.642   0.642   0.642   0.642   0.642   0.642   0.642   0.642   0.642   0.642   0.642   0.642   0.642   0.642   0.642   0.642   0.642   0.642   0.642   0.642   0.642   0.642   0.642   0.642   0.642   0.642   0.642   0.642
    70.67    0.642   0.642   0.642   0.642   0.642   0.642   0.642   0.642   0.642   0.642   0.642   0.642   0.642   0.642   0.642   0.642   0.642   0.642   0.642   0.642   0.642   0.642   0.642   0.642   0.642   0.642   0.642   0.642   0.642   0.642   0.642
    65.83    0.642   0.642   0.642   0.642   0.642   0.642   0.642   0.642   0.642   0.642   0.642   0.642   0.642   0.642   0.642   0.642   0.642   0.642   0.642   0.642   0.642   0.642   0.642   0.642   0.642   0.642   0.642   0.642   0.642   0.642   0.642
    61.00    0.642   0.642   0.642   0.642   0.642   0.642   0.642   0.642   0.642   0.642   0.642   0.642   0.642   0.642   0.642   0.642   0.642   0.642   0.642   0.642   0.642   0.642   0.642   0.642   0.642   0.642   0.642   0.642   0.642   0.642   0.642
    56.17    0.642   0.642   0.642   0.642   0.642   0.642   0.642   0.642   0.642   0.642   0.642   0.642   0.642   0.642   0.642   0.642   0.642   0.642   0.642   0.642   0.642   0.642   0.642   0.642   0.642   0.642   0.642   0.642   0.642   0.642   0.642
    51.33    0.642   0.642   0.642   0.642   0.642   0.642   0.642   0.642   0.642   0.642   0.642   0.642   0.642   0.642   0.642   0.642   0.642   0.642   0.642   0.642   0.642   0.642   0.642   0.642   0.642   0.642   0.642   0.642   0.642   0.642   0.642
    46.50    0.642   0.642   0.642   0.642   0.642   0.642   0.642   0.642   0.642   0.642   0.642   0.642   0.642   0.642   0.642   0.642   0.642   0.642   0.642   0.642   0.642   0.642   0.642   0.642   0.642   0.642   0.642   0.642   0.642   0.642   0.642
    41.67    0.642   0.642   0.642   0.642   0.642   0.642   0.642   0.642   0.642   0.642   0.642   0.642   0.642   0.642   0.642   0.642   0.642   0.642   0.642   0.642   0.642   0.642   0.642   0.642   0.642   0.642   0.642   0.642   0.642   0.642   0.642
    36.83    0.642   0.642   0.642   0.642   0.642   0.642   0.642   0.642   0.642   0.642   0.642   0.642   0.642   0.642   0.642   0.642   0.642   0.642   0.642   0.642   0.642   0.642   0.642   0.642   0.642   0.642   0.642   0.642   0.642   0.642   0.642
    32.00    0.642   0.642   0.642   0.642   0.642   0.642   0.642   0.642   0.642   0.642   0.642   0.642   0.642   0.642   0.642   0.642   0.642   0.642   0.642   0.642   0.642   0.642   0.642   0.642   0.642   0.642   0.642   0.642   0.642   0.642   0.642
    27.17    0.642   0.642   0.642   0.642   0.642   0.642   0.642   0.642   0.642   0.642   0.642   0.642   0.642   0.642   0.642   0.642   0.642   0.642   0.642   0.642   0.642   0.642   0.642   0.642   0.642   0.642   0.642   0.642   0.642   0.642   0.642
    22.33    0.642   0.642   0.642   0.642   0.642   0.642   0.642   0.642   0.642   0.642   0.642   0.642   0.642   0.642   0.642   0.642   0.642   0.642   0.642   0.642   0.642   0.642   0.642   0.642   0.642   0.642   0.642   0.642   0.642   0.642   0.642
    17.50    0.642   0.642   0.642   0.642   0.642   0.642   0.642   0.642   0.642   0.642   0.642   0.642   0.642   0.642   0.642   0.642   0.642   0.642   0.642   0.642   0.642   0.642   0.642   0.642   0.642   0.642   0.642   0.642   0.642   0.642   0.642

   Mean standard deviation across all grid points:
      u component:    1.063 m/s
      v component:    1.007 m/s
      w component:    0.642 m/s


U-component (X) statistics from the interpolated hub point:

   Mean =   5.0000 m/s
   TI   =  18.3859 %


Processing complete.  217.52 CPU seconds used.
