
This summary file was generated by TurbSim (v2.01.00-max, 20-02-2019) on 22-Feb-2019 at 10:27:47.


Runtime Options:

-456328495  Random seed #1
    RANLUX  Type of random number generator
         F  Output binary HH turbulence parameters?
         F  Output formatted turbulence parameters?
         F  Output AeroDyn HH files?
         T  Output AeroDyn FF files?
         F  Output BLADED FF files?
         T  Output tower data?
         F  Output formatted FF files?
         F  Output coherent turbulence time step file?
         T  Clockwise rotation when looking downwind?
 0 -  NONE  IEC turbulence models scaled to exact specified standard deviation


Turbine/Model Specifications:

        31  Vertical grid-point matrix dimension
        31  Horizontal grid-point matrix dimension
     0.050  Time step [seconds]
   630.000  Analysis time [seconds]
   630.000  Usable output time [seconds]
    90.000  Hub height [m]
   145.000  Grid height [m]
   145.000  Grid width [m]
     8.000  Vertical flow angle [degrees]
     0.000  Horizontal flow angle [degrees]


Meteorological Boundary Conditions:

    IECKAI  IEC Kaimal spectral model
         1  IEC standard: IEC 61400-1 Ed. 3: 2005
    16.000  Percent turbulence intensity, IEC 61400-1 Ed. 3: 2005
       NTM  IEC Normal Turbulence Model
       N/A  IEC Extreme Turbulence Model (ETM) "c" parameter [m/s]
       PL   Wind profile type
    90.000  Reference height [m]
     5.000  Reference wind speed [m/s]
       N/A  Jet height [m]
     0.200  Power law exponent
     0.030  Surface roughness length [m]


Non-IEC Meteorological Boundary Conditions:

       N/A  Site latitude [degrees]
       N/A  Gradient Richardson number
       N/A  Friction or shear velocity [m/s]
       N/A  Mixing layer depth [m]
       N/A  Mean hub u'w' Reynolds stress
       N/A  Mean hub u'v' Reynolds stress
       N/A  Mean hub v'w' Reynolds stress


Spatial Coherence Models:

       IEC  u-component coherence model
       IEC  v-component coherence model
       IEC  w-component coherence model
(   12.000, 0.353E-03)  u-component coherence parameters
(*********,  0.00    )  v-component coherence parameters
(*********,  0.00    )  w-component coherence parameters
       N/A  Coherence exponent


You have requested that the following file(s) be generated:

   05_a.bts (AeroDyn/TurbSim full-field wind file)


Turbulence Simulation Scaling Parameter Summary:

   Turbulence model used                            =  IEC Kaimal
   Turbulence characteristic                        =  User-specified
   IEC standard                                     =  IEC 61400-1 Ed. 3: 2005
   Mean wind speed at hub height                    =    5.000 m/s
   Characteristic value of standard deviation       =    0.800 m/s
   Turbulence scale                                 =   42.000 m
   u-component integral scale                       =  340.200 m
   Coherency scale                                  =  340.200 m
   Characteristic value of hub turbulence intensity =   16.000%
   Gradient Richardson number                       =    0.000

   Wind profile type                                =  Power law
   Power law exponent                               =    0.200
   Mean shear across rotor disk                     =    0.014 (m/s)/m
   Assumed rotor diameter                           =  145.000 m
   Surface roughness length                         =    0.030 m

   Nyquist frequency of turbulent wind field        =   10.000 Hz

   Number of time steps in the FFT                  =    12600
   Number of time steps output                      =    12600
   Number of points simulated                       =      964


Mean Flow Angles:

   Vertical   =   8.0 degrees
   Horizontal =   0.0 degrees

Mean Wind Speed Profile:

   Height    Wind Speed   Horizontal Angle  Vertical Angle  U-comp (X)   V-comp (Y)   W-comp (Z)
     (m)        (m/s)         (degrees)       (degrees)       (m/s)        (m/s)        (m/s)   
   ------    ----------   ----------------  --------------  ----------   ----------   ----------
    162.5        5.63            0.00            8.00          5.57         0.00         0.78
    157.7        5.59            0.00            8.00          5.54         0.00         0.78
    152.8        5.56            0.00            8.00          5.50         0.00         0.77
    148.0        5.52            0.00            8.00          5.47         0.00         0.77
    143.2        5.49            0.00            8.00          5.43         0.00         0.76
    138.3        5.45            0.00            8.00          5.40         0.00         0.76
    133.5        5.41            0.00            8.00          5.36         0.00         0.75
    128.7        5.37            0.00            8.00          5.32         0.00         0.75
    123.8        5.33            0.00            8.00          5.28         0.00         0.74
    119.0        5.29            0.00            8.00          5.24         0.00         0.74
    114.2        5.24            0.00            8.00          5.19         0.00         0.73
    109.3        5.20            0.00            8.00          5.15         0.00         0.72
    104.5        5.15            0.00            8.00          5.10         0.00         0.72
     99.7        5.10            0.00            8.00          5.05         0.00         0.71
     94.8        5.05            0.00            8.00          5.00         0.00         0.70
     90.0        5.00            0.00            8.00          4.95         0.00         0.70
     85.2        4.95            0.00            8.00          4.90         0.00         0.69
     80.3        4.89            0.00            8.00          4.84         0.00         0.68
     75.5        4.83            0.00            8.00          4.78         0.00         0.67
     70.7        4.76            0.00            8.00          4.72         0.00         0.66
     65.8        4.70            0.00            8.00          4.65         0.00         0.65
     61.0        4.63            0.00            8.00          4.58         0.00         0.64
     56.2        4.55            0.00            8.00          4.51         0.00         0.63
     51.3        4.47            0.00            8.00          4.43         0.00         0.62
     46.5        4.38            0.00            8.00          4.34         0.00         0.61
     41.7        4.29            0.00            8.00          4.24         0.00         0.60
     36.8        4.18            0.00            8.00          4.14         0.00         0.58
     32.0        4.07            0.00            8.00          4.03         0.00         0.57
     27.2        3.93            0.00            8.00          3.90         0.00         0.55
     22.3        3.78            0.00            8.00          3.75         0.00         0.53
     17.5        3.60            0.00            8.00          3.57         0.00         0.50
     12.7        3.38            0.00            8.00          3.35         0.00         0.47
      7.8        3.07            0.00            8.00          3.04         0.00         0.43
      3.0        2.53            0.00            8.00          2.51         0.00         0.35


Harvested Random Seeds after Generation of the Random Numbers:

    169290450 K 1
            0 K 2


Hub-Height Simulated Turbulence Statistical Summary:

   Type of Wind        Min (m/s)   Mean (m/s)    Max (m/s)  Sigma (m/s)       TI (%)
   ----------------    ---------   ----------    ---------  -----------       ------
   Longitudinal (u)         3.25         5.00         7.50        0.630       12.609
   Lateral (v)             -1.99         0.00         1.58        0.615       12.305
   Vertical (w)            -1.23        -0.00         1.29        0.392        7.846
   U component              3.19         4.95         7.47        0.634       12.808
   V component             -1.99         0.00         1.58        0.615       12.426
   W component             -0.51         0.70         2.02        0.386        7.801
   Horizontal (U&V)         3.20         4.99         7.47        0.632       12.657
   Total                    3.27         5.05         7.50        0.625       12.369

                       Min Reynolds     Mean Reynolds    Max Reynolds    Correlation
   Product             Stress (m/s)^2   Stress (m/s)^2   Stress (m/s)^2  Coefficient
   ----------------    --------------   --------------   --------------  -----------
   u'w'                     -1.466            -0.034             1.386        -0.138
   u'v'                     -2.166            -0.058             1.469        -0.149
   v'w'                     -1.395             0.006             1.218         0.024


   Friction Velocity (Ustar)  =      0.185 m/s
   Maximum Instantaneous TKE  =      3.177 (m/s)^2
   Maximum Instantaneous CTKE =      1.117 (m/s)^2


Grid Point Variance Summary:

   Y-coord  -72.50  -67.67  -62.83  -58.00  -53.17  -48.33  -43.50  -38.67  -33.83  -29.00  -24.17  -19.33  -14.50   -9.67   -4.83    0.00    4.83    9.67   14.50   19.33   24.17   29.00   33.83   38.67   43.50   48.33   53.17   58.00   62.83   67.67   72.50

   Height   Standard deviation at grid points for the u component:
   162.50    0.733   0.726   0.672   0.716   0.734   0.664   0.645   0.678   0.717   0.720   0.710   0.680   0.687   0.713   0.659   0.687   0.610   0.567   0.644   0.628   0.656   0.684   0.620   0.609   0.588   0.660   0.718   0.657   0.612   0.600   0.589
   157.67    0.760   0.748   0.686   0.686   0.713   0.696   0.702   0.650   0.617   0.681   0.675   0.662   0.650   0.658   0.669   0.618   0.659   0.573   0.604   0.606   0.687   0.647   0.684   0.636   0.620   0.623   0.653   0.665   0.652   0.619   0.662
   152.83    0.728   0.744   0.670   0.690   0.655   0.619   0.659   0.628   0.610   0.663   0.659   0.657   0.599   0.646   0.636   0.648   0.631   0.642   0.642   0.656   0.721   0.681   0.701   0.657   0.610   0.631   0.656   0.633   0.696   0.678   0.661
   148.00    0.807   0.722   0.679   0.687   0.656   0.609   0.667   0.620   0.610   0.598   0.680   0.642   0.615   0.599   0.643   0.622   0.622   0.636   0.622   0.666   0.737   0.761   0.711   0.703   0.655   0.643   0.642   0.653   0.667   0.709   0.640
   143.17    0.812   0.734   0.697   0.666   0.654   0.581   0.631   0.641   0.609   0.605   0.666   0.656   0.585   0.597   0.652   0.599   0.609   0.613   0.669   0.741   0.756   0.722   0.674   0.749   0.679   0.668   0.677   0.615   0.657   0.721   0.739
   138.33    0.796   0.719   0.670   0.649   0.710   0.655   0.597   0.585   0.594   0.594   0.621   0.623   0.578   0.648   0.635   0.607   0.585   0.634   0.699   0.755   0.717   0.730   0.695   0.702   0.683   0.633   0.651   0.633   0.609   0.689   0.755
   133.50    0.785   0.737   0.695   0.674   0.702   0.676   0.640   0.582   0.565   0.557   0.617   0.683   0.662   0.693   0.621   0.593   0.644   0.611   0.662   0.685   0.735   0.706   0.759   0.758   0.703   0.626   0.659   0.644   0.667   0.720   0.771
   128.67    0.759   0.749   0.768   0.708   0.736   0.674   0.591   0.585   0.631   0.620   0.645   0.662   0.681   0.584   0.618   0.564   0.599   0.605   0.622   0.679   0.717   0.704   0.730   0.689   0.688   0.707   0.663   0.670   0.716   0.794   0.763
   123.83    0.762   0.747   0.784   0.766   0.734   0.629   0.578   0.572   0.592   0.621   0.623   0.627   0.644   0.627   0.616   0.604   0.585   0.625   0.647   0.642   0.657   0.665   0.717   0.666   0.689   0.722   0.673   0.699   0.692   0.754   0.742
   119.00    0.750   0.761   0.757   0.727   0.669   0.699   0.662   0.568   0.583   0.594   0.621   0.654   0.667   0.648   0.683   0.657   0.657   0.665   0.612   0.647   0.623   0.658   0.692   0.664   0.633   0.692   0.682   0.705   0.701   0.687   0.700
   114.17    0.802   0.718   0.712   0.739   0.706   0.684   0.679   0.661   0.613   0.603   0.681   0.689   0.629   0.640   0.644   0.718   0.699   0.639   0.632   0.639   0.636   0.643   0.601   0.613   0.618   0.647   0.730   0.719   0.701   0.648   0.627
   109.33    0.801   0.746   0.722   0.716   0.696   0.674   0.672   0.705   0.700   0.706   0.717   0.686   0.678   0.699   0.614   0.688   0.697   0.664   0.627   0.616   0.621   0.585   0.683   0.667   0.737   0.697   0.699   0.692   0.740   0.652   0.614
   104.50    0.772   0.784   0.692   0.714   0.729   0.692   0.677   0.727   0.716   0.709   0.713   0.747   0.709   0.710   0.646   0.608   0.664   0.641   0.605   0.685   0.607   0.660   0.665   0.717   0.673   0.675   0.692   0.669   0.693   0.719   0.628
    99.67    0.762   0.771   0.713   0.651   0.702   0.674   0.647   0.722   0.804   0.805   0.752   0.732   0.737   0.692   0.623   0.583   0.611   0.625   0.617   0.664   0.668   0.693   0.694   0.791   0.707   0.671   0.752   0.727   0.714   0.689   0.659
    94.83    0.795   0.744   0.767   0.668   0.574   0.688   0.768   0.802   0.747   0.776   0.727   0.759   0.725   0.689   0.668   0.644   0.654   0.620   0.651   0.618   0.682   0.728   0.781   0.732   0.750   0.660   0.690   0.661   0.676   0.670   0.587
    90.00    0.758   0.750   0.741   0.678   0.643   0.659   0.733   0.821   0.717   0.732   0.723   0.736   0.748   0.652   0.679   0.630   0.649   0.641   0.615   0.633   0.675   0.782   0.730   0.721   0.686   0.659   0.631   0.685   0.654   0.662   0.562
    85.17    0.707   0.752   0.760   0.701   0.653   0.646   0.718   0.775   0.777   0.742   0.719   0.768   0.775   0.685   0.645   0.672   0.656   0.709   0.734   0.724   0.684   0.682   0.730   0.733   0.645   0.623   0.639   0.628   0.661   0.642   0.566
    80.33    0.714   0.699   0.695   0.661   0.692   0.619   0.722   0.746   0.766   0.720   0.762   0.782   0.788   0.686   0.683   0.699   0.693   0.693   0.763   0.752   0.696   0.672   0.694   0.676   0.643   0.658   0.622   0.616   0.617   0.632   0.616
    75.50    0.675   0.703   0.650   0.662   0.710   0.679   0.688   0.711   0.747   0.794   0.800   0.791   0.753   0.723   0.722   0.707   0.644   0.730   0.742   0.743   0.719   0.686   0.693   0.714   0.662   0.651   0.678   0.670   0.610   0.609   0.611
    70.67    0.662   0.659   0.624   0.651   0.698   0.724   0.763   0.751   0.754   0.753   0.723   0.735   0.744   0.697   0.691   0.758   0.729   0.731   0.791   0.790   0.750   0.747   0.710   0.720   0.687   0.634   0.686   0.656   0.614   0.582   0.590
    65.83    0.659   0.665   0.647   0.669   0.674   0.691   0.753   0.792   0.757   0.729   0.734   0.733   0.722   0.711   0.730   0.715   0.762   0.784   0.816   0.802   0.752   0.785   0.777   0.727   0.753   0.749   0.731   0.682   0.588   0.634   0.604
    61.00    0.680   0.650   0.657   0.656   0.683   0.682   0.722   0.804   0.771   0.730   0.686   0.714   0.741   0.797   0.770   0.780   0.777   0.736   0.756   0.789   0.771   0.793   0.789   0.740   0.720   0.786   0.783   0.731   0.694   0.676   0.603
    56.17    0.635   0.603   0.619   0.684   0.652   0.632   0.726   0.809   0.815   0.743   0.696   0.684   0.738   0.774   0.763   0.779   0.816   0.782   0.756   0.811   0.766   0.769   0.805   0.776   0.826   0.831   0.802   0.809   0.746   0.648   0.586
    51.33    0.658   0.619   0.668   0.701   0.674   0.739   0.791   0.786   0.812   0.754   0.734   0.741   0.776   0.794   0.788   0.791   0.788   0.747   0.803   0.788   0.778   0.805   0.844   0.858   0.822   0.851   0.815   0.832   0.749   0.647   0.634
    46.50    0.705   0.654   0.650   0.688   0.664   0.753   0.800   0.808   0.757   0.775   0.776   0.791   0.789   0.827   0.762   0.770   0.693   0.758   0.788   0.818   0.817   0.754   0.825   0.873   0.828   0.785   0.789   0.730   0.700   0.676   0.615
    41.67    0.744   0.731   0.694   0.740   0.708   0.735   0.726   0.754   0.687   0.713   0.764   0.693   0.728   0.779   0.689   0.770   0.763   0.783   0.803   0.881   0.922   0.828   0.868   0.854   0.833   0.753   0.778   0.689   0.694   0.616   0.620
    36.83    0.746   0.765   0.765   0.756   0.688   0.725   0.730   0.720   0.705   0.712   0.696   0.674   0.715   0.735   0.745   0.733   0.823   0.836   0.863   0.947   0.916   0.844   0.862   0.790   0.787   0.802   0.730   0.643   0.613   0.679   0.698
    32.00    0.753   0.790   0.830   0.747   0.726   0.749   0.724   0.718   0.689   0.716   0.618   0.645   0.797   0.742   0.825   0.814   0.850   0.798   0.774   0.899   0.910   0.876   0.821   0.790   0.735   0.730   0.650   0.679   0.654   0.724   0.651
    27.17    0.748   0.786   0.759   0.731   0.735   0.749   0.770   0.634   0.704   0.695   0.641   0.686   0.748   0.741   0.819   0.849   0.797   0.818   0.872   0.871   0.852   0.872   0.760   0.691   0.714   0.686   0.714   0.667   0.765   0.716   0.673
    22.33    0.723   0.700   0.687   0.721   0.732   0.763   0.743   0.717   0.666   0.729   0.604   0.642   0.628   0.672   0.756   0.871   0.910   0.835   0.872   0.825   0.849   0.767   0.735   0.652   0.656   0.687   0.722   0.713   0.697   0.760   0.736
    17.50    0.723   0.807   0.716   0.708   0.782   0.716   0.699   0.685   0.703   0.635   0.664   0.660   0.614   0.641   0.693   0.795   0.779   0.734   0.776   0.782   0.779   0.781   0.669   0.646   0.643   0.706   0.732   0.702   0.762   0.752   0.728

   Height   Standard deviation at grid points for the v component:
   162.50    0.615   0.615   0.615   0.615   0.615   0.615   0.615   0.615   0.615   0.615   0.615   0.615   0.615   0.615   0.615   0.615   0.615   0.615   0.615   0.615   0.615   0.615   0.615   0.615   0.615   0.615   0.615   0.615   0.615   0.615   0.615
   157.67    0.615   0.615   0.615   0.615   0.615   0.615   0.615   0.615   0.615   0.615   0.615   0.615   0.615   0.615   0.615   0.615   0.615   0.615   0.615   0.615   0.615   0.615   0.615   0.615   0.615   0.615   0.615   0.615   0.615   0.615   0.615
   152.83    0.615   0.615   0.615   0.615   0.615   0.615   0.615   0.615   0.615   0.615   0.615   0.615   0.615   0.615   0.615   0.615   0.615   0.615   0.615   0.615   0.615   0.615   0.615   0.615   0.615   0.615   0.615   0.615   0.615   0.615   0.615
   148.00    0.615   0.615   0.615   0.615   0.615   0.615   0.615   0.615   0.615   0.615   0.615   0.615   0.615   0.615   0.615   0.615   0.615   0.615   0.615   0.615   0.615   0.615   0.615   0.615   0.615   0.615   0.615   0.615   0.615   0.615   0.615
   143.17    0.615   0.615   0.615   0.615   0.615   0.615   0.615   0.615   0.615   0.615   0.615   0.615   0.615   0.615   0.615   0.615   0.615   0.615   0.615   0.615   0.615   0.615   0.615   0.615   0.615   0.615   0.615   0.615   0.615   0.615   0.615
   138.33    0.615   0.615   0.615   0.615   0.615   0.615   0.615   0.615   0.615   0.615   0.615   0.615   0.615   0.615   0.615   0.615   0.615   0.615   0.615   0.615   0.615   0.615   0.615   0.615   0.615   0.615   0.615   0.615   0.615   0.615   0.615
   133.50    0.615   0.615   0.615   0.615   0.615   0.615   0.615   0.615   0.615   0.615   0.615   0.615   0.615   0.615   0.615   0.615   0.615   0.615   0.615   0.615   0.615   0.615   0.615   0.615   0.615   0.615   0.615   0.615   0.615   0.615   0.615
   128.67    0.615   0.615   0.615   0.615   0.615   0.615   0.615   0.615   0.615   0.615   0.615   0.615   0.615   0.615   0.615   0.615   0.615   0.615   0.615   0.615   0.615   0.615   0.615   0.615   0.615   0.615   0.615   0.615   0.615   0.615   0.615
   123.83    0.615   0.615   0.615   0.615   0.615   0.615   0.615   0.615   0.615   0.615   0.615   0.615   0.615   0.615   0.615   0.615   0.615   0.615   0.615   0.615   0.615   0.615   0.615   0.615   0.615   0.615   0.615   0.615   0.615   0.615   0.615
   119.00    0.615   0.615   0.615   0.615   0.615   0.615   0.615   0.615   0.615   0.615   0.615   0.615   0.615   0.615   0.615   0.615   0.615   0.615   0.615   0.615   0.615   0.615   0.615   0.615   0.615   0.615   0.615   0.615   0.615   0.615   0.615
   114.17    0.615   0.615   0.615   0.615   0.615   0.615   0.615   0.615   0.615   0.615   0.615   0.615   0.615   0.615   0.615   0.615   0.615   0.615   0.615   0.615   0.615   0.615   0.615   0.615   0.615   0.615   0.615   0.615   0.615   0.615   0.615
   109.33    0.615   0.615   0.615   0.615   0.615   0.615   0.615   0.615   0.615   0.615   0.615   0.615   0.615   0.615   0.615   0.615   0.615   0.615   0.615   0.615   0.615   0.615   0.615   0.615   0.615   0.615   0.615   0.615   0.615   0.615   0.615
   104.50    0.615   0.615   0.615   0.615   0.615   0.615   0.615   0.615   0.615   0.615   0.615   0.615   0.615   0.615   0.615   0.615   0.615   0.615   0.615   0.615   0.615   0.615   0.615   0.615   0.615   0.615   0.615   0.615   0.615   0.615   0.615
    99.67    0.615   0.615   0.615   0.615   0.615   0.615   0.615   0.615   0.615   0.615   0.615   0.615   0.615   0.615   0.615   0.615   0.615   0.615   0.615   0.615   0.615   0.615   0.615   0.615   0.615   0.615   0.615   0.615   0.615   0.615   0.615
    94.83    0.615   0.615   0.615   0.615   0.615   0.615   0.615   0.615   0.615   0.615   0.615   0.615   0.615   0.615   0.615   0.615   0.615   0.615   0.615   0.615   0.615   0.615   0.615   0.615   0.615   0.615   0.615   0.615   0.615   0.615   0.615
    90.00    0.615   0.615   0.615   0.615   0.615   0.615   0.615   0.615   0.615   0.615   0.615   0.615   0.615   0.615   0.615   0.615   0.615   0.615   0.615   0.615   0.615   0.615   0.615   0.615   0.615   0.615   0.615   0.615   0.615   0.615   0.615
    85.17    0.615   0.615   0.615   0.615   0.615   0.615   0.615   0.615   0.615   0.615   0.615   0.615   0.615   0.615   0.615   0.615   0.615   0.615   0.615   0.615   0.615   0.615   0.615   0.615   0.615   0.615   0.615   0.615   0.615   0.615   0.615
    80.33    0.615   0.615   0.615   0.615   0.615   0.615   0.615   0.615   0.615   0.615   0.615   0.615   0.615   0.615   0.615   0.615   0.615   0.615   0.615   0.615   0.615   0.615   0.615   0.615   0.615   0.615   0.615   0.615   0.615   0.615   0.615
    75.50    0.615   0.615   0.615   0.615   0.615   0.615   0.615   0.615   0.615   0.615   0.615   0.615   0.615   0.615   0.615   0.615   0.615   0.615   0.615   0.615   0.615   0.615   0.615   0.615   0.615   0.615   0.615   0.615   0.615   0.615   0.615
    70.67    0.615   0.615   0.615   0.615   0.615   0.615   0.615   0.615   0.615   0.615   0.615   0.615   0.615   0.615   0.615   0.615   0.615   0.615   0.615   0.615   0.615   0.615   0.615   0.615   0.615   0.615   0.615   0.615   0.615   0.615   0.615
    65.83    0.615   0.615   0.615   0.615   0.615   0.615   0.615   0.615   0.615   0.615   0.615   0.615   0.615   0.615   0.615   0.615   0.615   0.615   0.615   0.615   0.615   0.615   0.615   0.615   0.615   0.615   0.615   0.615   0.615   0.615   0.615
    61.00    0.615   0.615   0.615   0.615   0.615   0.615   0.615   0.615   0.615   0.615   0.615   0.615   0.615   0.615   0.615   0.615   0.615   0.615   0.615   0.615   0.615   0.615   0.615   0.615   0.615   0.615   0.615   0.615   0.615   0.615   0.615
    56.17    0.615   0.615   0.615   0.615   0.615   0.615   0.615   0.615   0.615   0.615   0.615   0.615   0.615   0.615   0.615   0.615   0.615   0.615   0.615   0.615   0.615   0.615   0.615   0.615   0.615   0.615   0.615   0.615   0.615   0.615   0.615
    51.33    0.615   0.615   0.615   0.615   0.615   0.615   0.615   0.615   0.615   0.615   0.615   0.615   0.615   0.615   0.615   0.615   0.615   0.615   0.615   0.615   0.615   0.615   0.615   0.615   0.615   0.615   0.615   0.615   0.615   0.615   0.615
    46.50    0.615   0.615   0.615   0.615   0.615   0.615   0.615   0.615   0.615   0.615   0.615   0.615   0.615   0.615   0.615   0.615   0.615   0.615   0.615   0.615   0.615   0.615   0.615   0.615   0.615   0.615   0.615   0.615   0.615   0.615   0.615
    41.67    0.615   0.615   0.615   0.615   0.615   0.615   0.615   0.615   0.615   0.615   0.615   0.615   0.615   0.615   0.615   0.615   0.615   0.615   0.615   0.615   0.615   0.615   0.615   0.615   0.615   0.615   0.615   0.615   0.615   0.615   0.615
    36.83    0.615   0.615   0.615   0.615   0.615   0.615   0.615   0.615   0.615   0.615   0.615   0.615   0.615   0.615   0.615   0.615   0.615   0.615   0.615   0.615   0.615   0.615   0.615   0.615   0.615   0.615   0.615   0.615   0.615   0.615   0.615
    32.00    0.615   0.615   0.615   0.615   0.615   0.615   0.615   0.615   0.615   0.615   0.615   0.615   0.615   0.615   0.615   0.615   0.615   0.615   0.615   0.615   0.615   0.615   0.615   0.615   0.615   0.615   0.615   0.615   0.615   0.615   0.615
    27.17    0.615   0.615   0.615   0.615   0.615   0.615   0.615   0.615   0.615   0.615   0.615   0.615   0.615   0.615   0.615   0.615   0.615   0.615   0.615   0.615   0.615   0.615   0.615   0.615   0.615   0.615   0.615   0.615   0.615   0.615   0.615
    22.33    0.615   0.615   0.615   0.615   0.615   0.615   0.615   0.615   0.615   0.615   0.615   0.615   0.615   0.615   0.615   0.615   0.615   0.615   0.615   0.615   0.615   0.615   0.615   0.615   0.615   0.615   0.615   0.615   0.615   0.615   0.615
    17.50    0.615   0.615   0.615   0.615   0.615   0.615   0.615   0.615   0.615   0.615   0.615   0.615   0.615   0.615   0.615   0.615   0.615   0.615   0.615   0.615   0.615   0.615   0.615   0.615   0.615   0.615   0.615   0.615   0.615   0.615   0.615

   Height   Standard deviation at grid points for the w component:
   162.50    0.392   0.392   0.392   0.392   0.392   0.392   0.392   0.392   0.392   0.392   0.392   0.392   0.392   0.392   0.392   0.392   0.392   0.392   0.392   0.392   0.392   0.392   0.392   0.392   0.392   0.392   0.392   0.392   0.392   0.392   0.392
   157.67    0.392   0.392   0.392   0.392   0.392   0.392   0.392   0.392   0.392   0.392   0.392   0.392   0.392   0.392   0.392   0.392   0.392   0.392   0.392   0.392   0.392   0.392   0.392   0.392   0.392   0.392   0.392   0.392   0.392   0.392   0.392
   152.83    0.392   0.392   0.392   0.392   0.392   0.392   0.392   0.392   0.392   0.392   0.392   0.392   0.392   0.392   0.392   0.392   0.392   0.392   0.392   0.392   0.392   0.392   0.392   0.392   0.392   0.392   0.392   0.392   0.392   0.392   0.392
   148.00    0.392   0.392   0.392   0.392   0.392   0.392   0.392   0.392   0.392   0.392   0.392   0.392   0.392   0.392   0.392   0.392   0.392   0.392   0.392   0.392   0.392   0.392   0.392   0.392   0.392   0.392   0.392   0.392   0.392   0.392   0.392
   143.17    0.392   0.392   0.392   0.392   0.392   0.392   0.392   0.392   0.392   0.392   0.392   0.392   0.392   0.392   0.392   0.392   0.392   0.392   0.392   0.392   0.392   0.392   0.392   0.392   0.392   0.392   0.392   0.392   0.392   0.392   0.392
   138.33    0.392   0.392   0.392   0.392   0.392   0.392   0.392   0.392   0.392   0.392   0.392   0.392   0.392   0.392   0.392   0.392   0.392   0.392   0.392   0.392   0.392   0.392   0.392   0.392   0.392   0.392   0.392   0.392   0.392   0.392   0.392
   133.50    0.392   0.392   0.392   0.392   0.392   0.392   0.392   0.392   0.392   0.392   0.392   0.392   0.392   0.392   0.392   0.392   0.392   0.392   0.392   0.392   0.392   0.392   0.392   0.392   0.392   0.392   0.392   0.392   0.392   0.392   0.392
   128.67    0.392   0.392   0.392   0.392   0.392   0.392   0.392   0.392   0.392   0.392   0.392   0.392   0.392   0.392   0.392   0.392   0.392   0.392   0.392   0.392   0.392   0.392   0.392   0.392   0.392   0.392   0.392   0.392   0.392   0.392   0.392
   123.83    0.392   0.392   0.392   0.392   0.392   0.392   0.392   0.392   0.392   0.392   0.392   0.392   0.392   0.392   0.392   0.392   0.392   0.392   0.392   0.392   0.392   0.392   0.392   0.392   0.392   0.392   0.392   0.392   0.392   0.392   0.392
   119.00    0.392   0.392   0.392   0.392   0.392   0.392   0.392   0.392   0.392   0.392   0.392   0.392   0.392   0.392   0.392   0.392   0.392   0.392   0.392   0.392   0.392   0.392   0.392   0.392   0.392   0.392   0.392   0.392   0.392   0.392   0.392
   114.17    0.392   0.392   0.392   0.392   0.392   0.392   0.392   0.392   0.392   0.392   0.392   0.392   0.392   0.392   0.392   0.392   0.392   0.392   0.392   0.392   0.392   0.392   0.392   0.392   0.392   0.392   0.392   0.392   0.392   0.392   0.392
   109.33    0.392   0.392   0.392   0.392   0.392   0.392   0.392   0.392   0.392   0.392   0.392   0.392   0.392   0.392   0.392   0.392   0.392   0.392   0.392   0.392   0.392   0.392   0.392   0.392   0.392   0.392   0.392   0.392   0.392   0.392   0.392
   104.50    0.392   0.392   0.392   0.392   0.392   0.392   0.392   0.392   0.392   0.392   0.392   0.392   0.392   0.392   0.392   0.392   0.392   0.392   0.392   0.392   0.392   0.392   0.392   0.392   0.392   0.392   0.392   0.392   0.392   0.392   0.392
    99.67    0.392   0.392   0.392   0.392   0.392   0.392   0.392   0.392   0.392   0.392   0.392   0.392   0.392   0.392   0.392   0.392   0.392   0.392   0.392   0.392   0.392   0.392   0.392   0.392   0.392   0.392   0.392   0.392   0.392   0.392   0.392
    94.83    0.392   0.392   0.392   0.392   0.392   0.392   0.392   0.392   0.392   0.392   0.392   0.392   0.392   0.392   0.392   0.392   0.392   0.392   0.392   0.392   0.392   0.392   0.392   0.392   0.392   0.392   0.392   0.392   0.392   0.392   0.392
    90.00    0.392   0.392   0.392   0.392   0.392   0.392   0.392   0.392   0.392   0.392   0.392   0.392   0.392   0.392   0.392   0.392   0.392   0.392   0.392   0.392   0.392   0.392   0.392   0.392   0.392   0.392   0.392   0.392   0.392   0.392   0.392
    85.17    0.392   0.392   0.392   0.392   0.392   0.392   0.392   0.392   0.392   0.392   0.392   0.392   0.392   0.392   0.392   0.392   0.392   0.392   0.392   0.392   0.392   0.392   0.392   0.392   0.392   0.392   0.392   0.392   0.392   0.392   0.392
    80.33    0.392   0.392   0.392   0.392   0.392   0.392   0.392   0.392   0.392   0.392   0.392   0.392   0.392   0.392   0.392   0.392   0.392   0.392   0.392   0.392   0.392   0.392   0.392   0.392   0.392   0.392   0.392   0.392   0.392   0.392   0.392
    75.50    0.392   0.392   0.392   0.392   0.392   0.392   0.392   0.392   0.392   0.392   0.392   0.392   0.392   0.392   0.392   0.392   0.392   0.392   0.392   0.392   0.392   0.392   0.392   0.392   0.392   0.392   0.392   0.392   0.392   0.392   0.392
    70.67    0.392   0.392   0.392   0.392   0.392   0.392   0.392   0.392   0.392   0.392   0.392   0.392   0.392   0.392   0.392   0.392   0.392   0.392   0.392   0.392   0.392   0.392   0.392   0.392   0.392   0.392   0.392   0.392   0.392   0.392   0.392
    65.83    0.392   0.392   0.392   0.392   0.392   0.392   0.392   0.392   0.392   0.392   0.392   0.392   0.392   0.392   0.392   0.392   0.392   0.392   0.392   0.392   0.392   0.392   0.392   0.392   0.392   0.392   0.392   0.392   0.392   0.392   0.392
    61.00    0.392   0.392   0.392   0.392   0.392   0.392   0.392   0.392   0.392   0.392   0.392   0.392   0.392   0.392   0.392   0.392   0.392   0.392   0.392   0.392   0.392   0.392   0.392   0.392   0.392   0.392   0.392   0.392   0.392   0.392   0.392
    56.17    0.392   0.392   0.392   0.392   0.392   0.392   0.392   0.392   0.392   0.392   0.392   0.392   0.392   0.392   0.392   0.392   0.392   0.392   0.392   0.392   0.392   0.392   0.392   0.392   0.392   0.392   0.392   0.392   0.392   0.392   0.392
    51.33    0.392   0.392   0.392   0.392   0.392   0.392   0.392   0.392   0.392   0.392   0.392   0.392   0.392   0.392   0.392   0.392   0.392   0.392   0.392   0.392   0.392   0.392   0.392   0.392   0.392   0.392   0.392   0.392   0.392   0.392   0.392
    46.50    0.392   0.392   0.392   0.392   0.392   0.392   0.392   0.392   0.392   0.392   0.392   0.392   0.392   0.392   0.392   0.392   0.392   0.392   0.392   0.392   0.392   0.392   0.392   0.392   0.392   0.392   0.392   0.392   0.392   0.392   0.392
    41.67    0.392   0.392   0.392   0.392   0.392   0.392   0.392   0.392   0.392   0.392   0.392   0.392   0.392   0.392   0.392   0.392   0.392   0.392   0.392   0.392   0.392   0.392   0.392   0.392   0.392   0.392   0.392   0.392   0.392   0.392   0.392
    36.83    0.392   0.392   0.392   0.392   0.392   0.392   0.392   0.392   0.392   0.392   0.392   0.392   0.392   0.392   0.392   0.392   0.392   0.392   0.392   0.392   0.392   0.392   0.392   0.392   0.392   0.392   0.392   0.392   0.392   0.392   0.392
    32.00    0.392   0.392   0.392   0.392   0.392   0.392   0.392   0.392   0.392   0.392   0.392   0.392   0.392   0.392   0.392   0.392   0.392   0.392   0.392   0.392   0.392   0.392   0.392   0.392   0.392   0.392   0.392   0.392   0.392   0.392   0.392
    27.17    0.392   0.392   0.392   0.392   0.392   0.392   0.392   0.392   0.392   0.392   0.392   0.392   0.392   0.392   0.392   0.392   0.392   0.392   0.392   0.392   0.392   0.392   0.392   0.392   0.392   0.392   0.392   0.392   0.392   0.392   0.392
    22.33    0.392   0.392   0.392   0.392   0.392   0.392   0.392   0.392   0.392   0.392   0.392   0.392   0.392   0.392   0.392   0.392   0.392   0.392   0.392   0.392   0.392   0.392   0.392   0.392   0.392   0.392   0.392   0.392   0.392   0.392   0.392
    17.50    0.392   0.392   0.392   0.392   0.392   0.392   0.392   0.392   0.392   0.392   0.392   0.392   0.392   0.392   0.392   0.392   0.392   0.392   0.392   0.392   0.392   0.392   0.392   0.392   0.392   0.392   0.392   0.392   0.392   0.392   0.392

   Mean standard deviation across all grid points:
      u component:    0.701 m/s
      v component:    0.615 m/s
      w component:    0.392 m/s


U-component (X) statistics from the interpolated hub point:

   Mean =   4.9513 m/s
   TI   =  12.8083 %


Processing complete.  394.15 CPU seconds used.
