
This summary file was generated by TurbSim (v2.01.00-max, 20-02-2019) on 22-Feb-2019 at 10:34:31.


Runtime Options:

1275710421  Random seed #1
    RANLUX  Type of random number generator
         F  Output binary HH turbulence parameters?
         F  Output formatted turbulence parameters?
         F  Output AeroDyn HH files?
         T  Output AeroDyn FF files?
         F  Output BLADED FF files?
         T  Output tower data?
         F  Output formatted FF files?
         F  Output coherent turbulence time step file?
         T  Clockwise rotation when looking downwind?
 0 -  NONE  IEC turbulence models scaled to exact specified standard deviation


Turbine/Model Specifications:

        31  Vertical grid-point matrix dimension
        31  Horizontal grid-point matrix dimension
     0.050  Time step [seconds]
   630.000  Analysis time [seconds]
   630.000  Usable output time [seconds]
    90.000  Hub height [m]
   145.000  Grid height [m]
   145.000  Grid width [m]
     8.000  Vertical flow angle [degrees]
     0.000  Horizontal flow angle [degrees]


Meteorological Boundary Conditions:

    IECKAI  IEC Kaimal spectral model
         1  IEC standard: IEC 61400-1 Ed. 3: 2005
    16.000  Percent turbulence intensity, IEC 61400-1 Ed. 3: 2005
       NTM  IEC Normal Turbulence Model
       N/A  IEC Extreme Turbulence Model (ETM) "c" parameter [m/s]
       PL   Wind profile type
    90.000  Reference height [m]
     5.000  Reference wind speed [m/s]
       N/A  Jet height [m]
     0.200  Power law exponent
     0.030  Surface roughness length [m]


Non-IEC Meteorological Boundary Conditions:

       N/A  Site latitude [degrees]
       N/A  Gradient Richardson number
       N/A  Friction or shear velocity [m/s]
       N/A  Mixing layer depth [m]
       N/A  Mean hub u'w' Reynolds stress
       N/A  Mean hub u'v' Reynolds stress
       N/A  Mean hub v'w' Reynolds stress


Spatial Coherence Models:

       IEC  u-component coherence model
       IEC  v-component coherence model
       IEC  w-component coherence model
(   12.000, 0.353E-03)  u-component coherence parameters
(*********,  0.00    )  v-component coherence parameters
(*********,  0.00    )  w-component coherence parameters
       N/A  Coherence exponent


You have requested that the following file(s) be generated:

   05_b.bts (AeroDyn/TurbSim full-field wind file)


Turbulence Simulation Scaling Parameter Summary:

   Turbulence model used                            =  IEC Kaimal
   Turbulence characteristic                        =  User-specified
   IEC standard                                     =  IEC 61400-1 Ed. 3: 2005
   Mean wind speed at hub height                    =    5.000 m/s
   Characteristic value of standard deviation       =    0.800 m/s
   Turbulence scale                                 =   42.000 m
   u-component integral scale                       =  340.200 m
   Coherency scale                                  =  340.200 m
   Characteristic value of hub turbulence intensity =   16.000%
   Gradient Richardson number                       =    0.000

   Wind profile type                                =  Power law
   Power law exponent                               =    0.200
   Mean shear across rotor disk                     =    0.014 (m/s)/m
   Assumed rotor diameter                           =  145.000 m
   Surface roughness length                         =    0.030 m

   Nyquist frequency of turbulent wind field        =   10.000 Hz

   Number of time steps in the FFT                  =    12600
   Number of time steps output                      =    12600
   Number of points simulated                       =      964


Mean Flow Angles:

   Vertical   =   8.0 degrees
   Horizontal =   0.0 degrees

Mean Wind Speed Profile:

   Height    Wind Speed   Horizontal Angle  Vertical Angle  U-comp (X)   V-comp (Y)   W-comp (Z)
     (m)        (m/s)         (degrees)       (degrees)       (m/s)        (m/s)        (m/s)   
   ------    ----------   ----------------  --------------  ----------   ----------   ----------
    162.5        5.63            0.00            8.00          5.57         0.00         0.78
    157.7        5.59            0.00            8.00          5.54         0.00         0.78
    152.8        5.56            0.00            8.00          5.50         0.00         0.77
    148.0        5.52            0.00            8.00          5.47         0.00         0.77
    143.2        5.49            0.00            8.00          5.43         0.00         0.76
    138.3        5.45            0.00            8.00          5.40         0.00         0.76
    133.5        5.41            0.00            8.00          5.36         0.00         0.75
    128.7        5.37            0.00            8.00          5.32         0.00         0.75
    123.8        5.33            0.00            8.00          5.28         0.00         0.74
    119.0        5.29            0.00            8.00          5.24         0.00         0.74
    114.2        5.24            0.00            8.00          5.19         0.00         0.73
    109.3        5.20            0.00            8.00          5.15         0.00         0.72
    104.5        5.15            0.00            8.00          5.10         0.00         0.72
     99.7        5.10            0.00            8.00          5.05         0.00         0.71
     94.8        5.05            0.00            8.00          5.00         0.00         0.70
     90.0        5.00            0.00            8.00          4.95         0.00         0.70
     85.2        4.95            0.00            8.00          4.90         0.00         0.69
     80.3        4.89            0.00            8.00          4.84         0.00         0.68
     75.5        4.83            0.00            8.00          4.78         0.00         0.67
     70.7        4.76            0.00            8.00          4.72         0.00         0.66
     65.8        4.70            0.00            8.00          4.65         0.00         0.65
     61.0        4.63            0.00            8.00          4.58         0.00         0.64
     56.2        4.55            0.00            8.00          4.51         0.00         0.63
     51.3        4.47            0.00            8.00          4.43         0.00         0.62
     46.5        4.38            0.00            8.00          4.34         0.00         0.61
     41.7        4.29            0.00            8.00          4.24         0.00         0.60
     36.8        4.18            0.00            8.00          4.14         0.00         0.58
     32.0        4.07            0.00            8.00          4.03         0.00         0.57
     27.2        3.93            0.00            8.00          3.90         0.00         0.55
     22.3        3.78            0.00            8.00          3.75         0.00         0.53
     17.5        3.60            0.00            8.00          3.57         0.00         0.50
     12.7        3.38            0.00            8.00          3.35         0.00         0.47
      7.8        3.07            0.00            8.00          3.04         0.00         0.43
      3.0        2.53            0.00            8.00          2.51         0.00         0.35


Harvested Random Seeds after Generation of the Random Numbers:

    169290450 K 1
            0 K 2


Hub-Height Simulated Turbulence Statistical Summary:

   Type of Wind        Min (m/s)   Mean (m/s)    Max (m/s)  Sigma (m/s)       TI (%)
   ----------------    ---------   ----------    ---------  -----------       ------
   Longitudinal (u)         2.84         5.00         7.28        0.747       14.947
   Lateral (v)             -1.94         0.00         2.48        0.615       12.305
   Vertical (w)            -1.44        -0.00         1.17        0.392        7.846
   U component              2.83         4.95         7.26        0.744       15.028
   V component             -1.94         0.00         2.48        0.615       12.426
   W component             -0.88         0.70         2.01        0.398        8.047
   Horizontal (U&V)         2.85         4.99         7.33        0.739       14.806
   Total                    2.86         5.05         7.36        0.738       14.610

                       Min Reynolds     Mean Reynolds    Max Reynolds    Correlation
   Product             Stress (m/s)^2   Stress (m/s)^2   Stress (m/s)^2  Coefficient
   ----------------    --------------   --------------   --------------  -----------
   u'w'                     -1.572            -0.011             1.886        -0.037
   u'v'                     -2.903            -0.081             1.780        -0.176
   v'w'                     -1.412             0.006             1.692         0.027


   Friction Velocity (Ustar)  =      0.104 m/s
   Maximum Instantaneous TKE  =      3.312 (m/s)^2
   Maximum Instantaneous CTKE =      1.452 (m/s)^2


Grid Point Variance Summary:

   Y-coord  -72.50  -67.67  -62.83  -58.00  -53.17  -48.33  -43.50  -38.67  -33.83  -29.00  -24.17  -19.33  -14.50   -9.67   -4.83    0.00    4.83    9.67   14.50   19.33   24.17   29.00   33.83   38.67   43.50   48.33   53.17   58.00   62.83   67.67   72.50

   Height   Standard deviation at grid points for the u component:
   162.50    0.676   0.680   0.652   0.615   0.552   0.534   0.566   0.557   0.595   0.534   0.516   0.502   0.511   0.624   0.596   0.631   0.631   0.629   0.628   0.605   0.673   0.656   0.712   0.745   0.741   0.806   0.761   0.739   0.697   0.728   0.755
   157.67    0.689   0.719   0.665   0.617   0.575   0.554   0.564   0.568   0.596   0.548   0.599   0.581   0.599   0.600   0.574   0.592   0.612   0.634   0.648   0.580   0.674   0.661   0.679   0.680   0.690   0.727   0.707   0.725   0.726   0.707   0.677
   152.83    0.672   0.643   0.626   0.599   0.531   0.512   0.574   0.558   0.565   0.565   0.583   0.531   0.574   0.584   0.577   0.600   0.539   0.621   0.659   0.667   0.681   0.718   0.694   0.649   0.633   0.738   0.724   0.724   0.658   0.670   0.665
   148.00    0.635   0.634   0.635   0.600   0.604   0.586   0.545   0.636   0.632   0.535   0.529   0.525   0.556   0.581   0.563   0.568   0.549   0.603   0.725   0.717   0.734   0.771   0.712   0.690   0.664   0.655   0.716   0.716   0.689   0.665   0.682
   143.17    0.679   0.598   0.580   0.554   0.548   0.554   0.567   0.618   0.631   0.592   0.604   0.545   0.512   0.533   0.556   0.559   0.589   0.599   0.643   0.714   0.775   0.760   0.765   0.738   0.738   0.725   0.710   0.724   0.650   0.680   0.649
   138.33    0.605   0.623   0.582   0.531   0.499   0.509   0.569   0.582   0.639   0.607   0.645   0.546   0.534   0.584   0.563   0.612   0.642   0.698   0.670   0.689   0.735   0.727   0.747   0.819   0.783   0.710   0.653   0.691   0.688   0.629   0.618
   133.50    0.589   0.590   0.575   0.553   0.580   0.568   0.568   0.630   0.638   0.661   0.697   0.647   0.654   0.587   0.615   0.651   0.633   0.680   0.695   0.729   0.732   0.742   0.714   0.754   0.739   0.691   0.639   0.607   0.567   0.590   0.629
   128.67    0.613   0.638   0.618   0.597   0.648   0.649   0.631   0.639   0.604   0.584   0.681   0.684   0.708   0.617   0.637   0.654   0.696   0.697   0.727   0.675   0.673   0.656   0.616   0.649   0.709   0.645   0.646   0.602   0.578   0.569   0.625
   123.83    0.693   0.684   0.616   0.648   0.657   0.662   0.687   0.593   0.595   0.647   0.679   0.688   0.674   0.629   0.664   0.669   0.680   0.728   0.751   0.651   0.656   0.663   0.646   0.697   0.703   0.733   0.646   0.612   0.602   0.617   0.688
   119.00    0.663   0.679   0.633   0.605   0.673   0.691   0.608   0.629   0.671   0.641   0.687   0.700   0.663   0.630   0.657   0.671   0.735   0.719   0.730   0.715   0.742   0.697   0.655   0.720   0.792   0.766   0.719   0.622   0.647   0.632   0.687
   114.17    0.626   0.640   0.629   0.647   0.643   0.625   0.642   0.664   0.673   0.652   0.667   0.672   0.636   0.569   0.640   0.631   0.602   0.671   0.705   0.740   0.702   0.632   0.642   0.729   0.755   0.721   0.706   0.632   0.704   0.672   0.737
   109.33    0.646   0.631   0.662   0.614   0.646   0.609   0.657   0.679   0.646   0.619   0.610   0.646   0.598   0.616   0.639   0.650   0.697   0.722   0.719   0.715   0.676   0.665   0.666   0.724   0.671   0.653   0.698   0.697   0.694   0.743   0.758
   104.50    0.687   0.613   0.641   0.662   0.656   0.595   0.655   0.635   0.704   0.680   0.615   0.628   0.644   0.646   0.646   0.687   0.707   0.636   0.679   0.698   0.721   0.660   0.694   0.675   0.665   0.661   0.670   0.727   0.754   0.761   0.758
    99.67    0.713   0.645   0.618   0.648   0.636   0.610   0.662   0.657   0.663   0.645   0.611   0.625   0.666   0.638   0.659   0.716   0.737   0.652   0.629   0.694   0.656   0.622   0.679   0.707   0.695   0.663   0.711   0.783   0.814   0.812   0.766
    94.83    0.699   0.664   0.633   0.585   0.606   0.626   0.657   0.636   0.588   0.592   0.600   0.632   0.663   0.642   0.630   0.717   0.707   0.651   0.603   0.623   0.683   0.687   0.720   0.685   0.695   0.731   0.775   0.765   0.796   0.813   0.777
    90.00    0.640   0.681   0.616   0.601   0.624   0.628   0.612   0.625   0.612   0.621   0.638   0.629   0.633   0.647   0.685   0.747   0.756   0.723   0.669   0.627   0.692   0.726   0.752   0.764   0.710   0.755   0.818   0.809   0.795   0.835   0.841
    85.17    0.744   0.736   0.597   0.586   0.576   0.609   0.593   0.633   0.601   0.608   0.620   0.598   0.616   0.605   0.682   0.761   0.808   0.703   0.706   0.686   0.691   0.715   0.712   0.777   0.716   0.727   0.807   0.808   0.817   0.818   0.780
    80.33    0.766   0.750   0.679   0.632   0.632   0.592   0.579   0.613   0.589   0.625   0.606   0.632   0.613   0.620   0.644   0.716   0.758   0.677   0.667   0.665   0.658   0.662   0.709   0.719   0.766   0.786   0.871   0.861   0.862   0.886   0.858
    75.50    0.809   0.766   0.721   0.680   0.668   0.649   0.625   0.655   0.641   0.650   0.632   0.645   0.616   0.639   0.655   0.708   0.729   0.694   0.657   0.679   0.657   0.692   0.726   0.748   0.756   0.807   0.816   0.803   0.792   0.837   0.853
    70.67    0.827   0.816   0.747   0.731   0.685   0.642   0.684   0.689   0.696   0.646   0.647   0.661   0.612   0.626   0.626   0.717   0.714   0.678   0.696   0.689   0.685   0.694   0.673   0.711   0.722   0.821   0.791   0.801   0.776   0.785   0.800
    65.83    0.776   0.713   0.684   0.678   0.714   0.665   0.655   0.651   0.661   0.645   0.683   0.663   0.637   0.604   0.640   0.726   0.763   0.740   0.694   0.639   0.647   0.707   0.743   0.721   0.729   0.787   0.808   0.804   0.771   0.777   0.847
    61.00    0.815   0.760   0.709   0.693   0.721   0.707   0.683   0.716   0.681   0.630   0.675   0.696   0.736   0.663   0.683   0.756   0.764   0.718   0.744   0.688   0.694   0.657   0.717   0.754   0.780   0.839   0.810   0.795   0.772   0.826   0.872
    56.17    0.833   0.795   0.717   0.674   0.688   0.672   0.679   0.718   0.663   0.660   0.718   0.712   0.752   0.707   0.770   0.791   0.738   0.667   0.725   0.739   0.666   0.644   0.699   0.735   0.714   0.764   0.789   0.765   0.752   0.822   0.859
    51.33    0.924   0.841   0.766   0.753   0.746   0.739   0.692   0.677   0.635   0.648   0.677   0.670   0.767   0.677   0.744   0.733   0.741   0.737   0.712   0.766   0.653   0.700   0.769   0.732   0.729   0.772   0.771   0.734   0.695   0.758   0.797
    46.50    0.901   0.811   0.789   0.776   0.738   0.759   0.775   0.719   0.687   0.664   0.667   0.719   0.757   0.771   0.758   0.723   0.725   0.687   0.706   0.682   0.711   0.735   0.785   0.830   0.856   0.804   0.848   0.750   0.758   0.777   0.786
    41.67    0.848   0.788   0.756   0.734   0.705   0.760   0.729   0.689   0.658   0.686   0.729   0.748   0.767   0.824   0.795   0.774   0.748   0.691   0.738   0.700   0.683   0.761   0.792   0.747   0.776   0.790   0.798   0.761   0.792   0.733   0.808
    36.83    0.783   0.778   0.685   0.666   0.702   0.708   0.685   0.685   0.713   0.684   0.755   0.788   0.773   0.777   0.765   0.784   0.742   0.682   0.679   0.712   0.670   0.688   0.758   0.807   0.766   0.754   0.836   0.803   0.798   0.817   0.886
    32.00    0.736   0.762   0.679   0.681   0.654   0.671   0.679   0.689   0.680   0.658   0.659   0.689   0.728   0.774   0.755   0.727   0.700   0.726   0.696   0.674   0.701   0.699   0.771   0.827   0.874   0.911   0.840   0.847   0.882   0.919   0.938
    27.17    0.727   0.701   0.717   0.633   0.686   0.639   0.668   0.634   0.664   0.644   0.647   0.656   0.736   0.777   0.696   0.759   0.743   0.725   0.706   0.686   0.700   0.739   0.774   0.817   0.885   0.904   0.818   0.901   0.956   0.965   0.918
    22.33    0.751   0.714   0.687   0.663   0.654   0.672   0.667   0.672   0.620   0.683   0.660   0.638   0.743   0.793   0.760   0.712   0.746   0.729   0.725   0.730   0.736   0.692   0.770   0.786   0.802   0.832   0.832   0.897   0.937   0.980   0.945
    17.50    0.723   0.633   0.681   0.748   0.718   0.655   0.695   0.686   0.676   0.716   0.724   0.685   0.732   0.674   0.701   0.721   0.743   0.740   0.781   0.830   0.780   0.672   0.714   0.758   0.800   0.834   0.858   0.845   0.897   0.953   0.908

   Height   Standard deviation at grid points for the v component:
   162.50    0.615   0.615   0.615   0.615   0.615   0.615   0.615   0.615   0.615   0.615   0.615   0.615   0.615   0.615   0.615   0.615   0.615   0.615   0.615   0.615   0.615   0.615   0.615   0.615   0.615   0.615   0.615   0.615   0.615   0.615   0.615
   157.67    0.615   0.615   0.615   0.615   0.615   0.615   0.615   0.615   0.615   0.615   0.615   0.615   0.615   0.615   0.615   0.615   0.615   0.615   0.615   0.615   0.615   0.615   0.615   0.615   0.615   0.615   0.615   0.615   0.615   0.615   0.615
   152.83    0.615   0.615   0.615   0.615   0.615   0.615   0.615   0.615   0.615   0.615   0.615   0.615   0.615   0.615   0.615   0.615   0.615   0.615   0.615   0.615   0.615   0.615   0.615   0.615   0.615   0.615   0.615   0.615   0.615   0.615   0.615
   148.00    0.615   0.615   0.615   0.615   0.615   0.615   0.615   0.615   0.615   0.615   0.615   0.615   0.615   0.615   0.615   0.615   0.615   0.615   0.615   0.615   0.615   0.615   0.615   0.615   0.615   0.615   0.615   0.615   0.615   0.615   0.615
   143.17    0.615   0.615   0.615   0.615   0.615   0.615   0.615   0.615   0.615   0.615   0.615   0.615   0.615   0.615   0.615   0.615   0.615   0.615   0.615   0.615   0.615   0.615   0.615   0.615   0.615   0.615   0.615   0.615   0.615   0.615   0.615
   138.33    0.615   0.615   0.615   0.615   0.615   0.615   0.615   0.615   0.615   0.615   0.615   0.615   0.615   0.615   0.615   0.615   0.615   0.615   0.615   0.615   0.615   0.615   0.615   0.615   0.615   0.615   0.615   0.615   0.615   0.615   0.615
   133.50    0.615   0.615   0.615   0.615   0.615   0.615   0.615   0.615   0.615   0.615   0.615   0.615   0.615   0.615   0.615   0.615   0.615   0.615   0.615   0.615   0.615   0.615   0.615   0.615   0.615   0.615   0.615   0.615   0.615   0.615   0.615
   128.67    0.615   0.615   0.615   0.615   0.615   0.615   0.615   0.615   0.615   0.615   0.615   0.615   0.615   0.615   0.615   0.615   0.615   0.615   0.615   0.615   0.615   0.615   0.615   0.615   0.615   0.615   0.615   0.615   0.615   0.615   0.615
   123.83    0.615   0.615   0.615   0.615   0.615   0.615   0.615   0.615   0.615   0.615   0.615   0.615   0.615   0.615   0.615   0.615   0.615   0.615   0.615   0.615   0.615   0.615   0.615   0.615   0.615   0.615   0.615   0.615   0.615   0.615   0.615
   119.00    0.615   0.615   0.615   0.615   0.615   0.615   0.615   0.615   0.615   0.615   0.615   0.615   0.615   0.615   0.615   0.615   0.615   0.615   0.615   0.615   0.615   0.615   0.615   0.615   0.615   0.615   0.615   0.615   0.615   0.615   0.615
   114.17    0.615   0.615   0.615   0.615   0.615   0.615   0.615   0.615   0.615   0.615   0.615   0.615   0.615   0.615   0.615   0.615   0.615   0.615   0.615   0.615   0.615   0.615   0.615   0.615   0.615   0.615   0.615   0.615   0.615   0.615   0.615
   109.33    0.615   0.615   0.615   0.615   0.615   0.615   0.615   0.615   0.615   0.615   0.615   0.615   0.615   0.615   0.615   0.615   0.615   0.615   0.615   0.615   0.615   0.615   0.615   0.615   0.615   0.615   0.615   0.615   0.615   0.615   0.615
   104.50    0.615   0.615   0.615   0.615   0.615   0.615   0.615   0.615   0.615   0.615   0.615   0.615   0.615   0.615   0.615   0.615   0.615   0.615   0.615   0.615   0.615   0.615   0.615   0.615   0.615   0.615   0.615   0.615   0.615   0.615   0.615
    99.67    0.615   0.615   0.615   0.615   0.615   0.615   0.615   0.615   0.615   0.615   0.615   0.615   0.615   0.615   0.615   0.615   0.615   0.615   0.615   0.615   0.615   0.615   0.615   0.615   0.615   0.615   0.615   0.615   0.615   0.615   0.615
    94.83    0.615   0.615   0.615   0.615   0.615   0.615   0.615   0.615   0.615   0.615   0.615   0.615   0.615   0.615   0.615   0.615   0.615   0.615   0.615   0.615   0.615   0.615   0.615   0.615   0.615   0.615   0.615   0.615   0.615   0.615   0.615
    90.00    0.615   0.615   0.615   0.615   0.615   0.615   0.615   0.615   0.615   0.615   0.615   0.615   0.615   0.615   0.615   0.615   0.615   0.615   0.615   0.615   0.615   0.615   0.615   0.615   0.615   0.615   0.615   0.615   0.615   0.615   0.615
    85.17    0.615   0.615   0.615   0.615   0.615   0.615   0.615   0.615   0.615   0.615   0.615   0.615   0.615   0.615   0.615   0.615   0.615   0.615   0.615   0.615   0.615   0.615   0.615   0.615   0.615   0.615   0.615   0.615   0.615   0.615   0.615
    80.33    0.615   0.615   0.615   0.615   0.615   0.615   0.615   0.615   0.615   0.615   0.615   0.615   0.615   0.615   0.615   0.615   0.615   0.615   0.615   0.615   0.615   0.615   0.615   0.615   0.615   0.615   0.615   0.615   0.615   0.615   0.615
    75.50    0.615   0.615   0.615   0.615   0.615   0.615   0.615   0.615   0.615   0.615   0.615   0.615   0.615   0.615   0.615   0.615   0.615   0.615   0.615   0.615   0.615   0.615   0.615   0.615   0.615   0.615   0.615   0.615   0.615   0.615   0.615
    70.67    0.615   0.615   0.615   0.615   0.615   0.615   0.615   0.615   0.615   0.615   0.615   0.615   0.615   0.615   0.615   0.615   0.615   0.615   0.615   0.615   0.615   0.615   0.615   0.615   0.615   0.615   0.615   0.615   0.615   0.615   0.615
    65.83    0.615   0.615   0.615   0.615   0.615   0.615   0.615   0.615   0.615   0.615   0.615   0.615   0.615   0.615   0.615   0.615   0.615   0.615   0.615   0.615   0.615   0.615   0.615   0.615   0.615   0.615   0.615   0.615   0.615   0.615   0.615
    61.00    0.615   0.615   0.615   0.615   0.615   0.615   0.615   0.615   0.615   0.615   0.615   0.615   0.615   0.615   0.615   0.615   0.615   0.615   0.615   0.615   0.615   0.615   0.615   0.615   0.615   0.615   0.615   0.615   0.615   0.615   0.615
    56.17    0.615   0.615   0.615   0.615   0.615   0.615   0.615   0.615   0.615   0.615   0.615   0.615   0.615   0.615   0.615   0.615   0.615   0.615   0.615   0.615   0.615   0.615   0.615   0.615   0.615   0.615   0.615   0.615   0.615   0.615   0.615
    51.33    0.615   0.615   0.615   0.615   0.615   0.615   0.615   0.615   0.615   0.615   0.615   0.615   0.615   0.615   0.615   0.615   0.615   0.615   0.615   0.615   0.615   0.615   0.615   0.615   0.615   0.615   0.615   0.615   0.615   0.615   0.615
    46.50    0.615   0.615   0.615   0.615   0.615   0.615   0.615   0.615   0.615   0.615   0.615   0.615   0.615   0.615   0.615   0.615   0.615   0.615   0.615   0.615   0.615   0.615   0.615   0.615   0.615   0.615   0.615   0.615   0.615   0.615   0.615
    41.67    0.615   0.615   0.615   0.615   0.615   0.615   0.615   0.615   0.615   0.615   0.615   0.615   0.615   0.615   0.615   0.615   0.615   0.615   0.615   0.615   0.615   0.615   0.615   0.615   0.615   0.615   0.615   0.615   0.615   0.615   0.615
    36.83    0.615   0.615   0.615   0.615   0.615   0.615   0.615   0.615   0.615   0.615   0.615   0.615   0.615   0.615   0.615   0.615   0.615   0.615   0.615   0.615   0.615   0.615   0.615   0.615   0.615   0.615   0.615   0.615   0.615   0.615   0.615
    32.00    0.615   0.615   0.615   0.615   0.615   0.615   0.615   0.615   0.615   0.615   0.615   0.615   0.615   0.615   0.615   0.615   0.615   0.615   0.615   0.615   0.615   0.615   0.615   0.615   0.615   0.615   0.615   0.615   0.615   0.615   0.615
    27.17    0.615   0.615   0.615   0.615   0.615   0.615   0.615   0.615   0.615   0.615   0.615   0.615   0.615   0.615   0.615   0.615   0.615   0.615   0.615   0.615   0.615   0.615   0.615   0.615   0.615   0.615   0.615   0.615   0.615   0.615   0.615
    22.33    0.615   0.615   0.615   0.615   0.615   0.615   0.615   0.615   0.615   0.615   0.615   0.615   0.615   0.615   0.615   0.615   0.615   0.615   0.615   0.615   0.615   0.615   0.615   0.615   0.615   0.615   0.615   0.615   0.615   0.615   0.615
    17.50    0.615   0.615   0.615   0.615   0.615   0.615   0.615   0.615   0.615   0.615   0.615   0.615   0.615   0.615   0.615   0.615   0.615   0.615   0.615   0.615   0.615   0.615   0.615   0.615   0.615   0.615   0.615   0.615   0.615   0.615   0.615

   Height   Standard deviation at grid points for the w component:
   162.50    0.392   0.392   0.392   0.392   0.392   0.392   0.392   0.392   0.392   0.392   0.392   0.392   0.392   0.392   0.392   0.392   0.392   0.392   0.392   0.392   0.392   0.392   0.392   0.392   0.392   0.392   0.392   0.392   0.392   0.392   0.392
   157.67    0.392   0.392   0.392   0.392   0.392   0.392   0.392   0.392   0.392   0.392   0.392   0.392   0.392   0.392   0.392   0.392   0.392   0.392   0.392   0.392   0.392   0.392   0.392   0.392   0.392   0.392   0.392   0.392   0.392   0.392   0.392
   152.83    0.392   0.392   0.392   0.392   0.392   0.392   0.392   0.392   0.392   0.392   0.392   0.392   0.392   0.392   0.392   0.392   0.392   0.392   0.392   0.392   0.392   0.392   0.392   0.392   0.392   0.392   0.392   0.392   0.392   0.392   0.392
   148.00    0.392   0.392   0.392   0.392   0.392   0.392   0.392   0.392   0.392   0.392   0.392   0.392   0.392   0.392   0.392   0.392   0.392   0.392   0.392   0.392   0.392   0.392   0.392   0.392   0.392   0.392   0.392   0.392   0.392   0.392   0.392
   143.17    0.392   0.392   0.392   0.392   0.392   0.392   0.392   0.392   0.392   0.392   0.392   0.392   0.392   0.392   0.392   0.392   0.392   0.392   0.392   0.392   0.392   0.392   0.392   0.392   0.392   0.392   0.392   0.392   0.392   0.392   0.392
   138.33    0.392   0.392   0.392   0.392   0.392   0.392   0.392   0.392   0.392   0.392   0.392   0.392   0.392   0.392   0.392   0.392   0.392   0.392   0.392   0.392   0.392   0.392   0.392   0.392   0.392   0.392   0.392   0.392   0.392   0.392   0.392
   133.50    0.392   0.392   0.392   0.392   0.392   0.392   0.392   0.392   0.392   0.392   0.392   0.392   0.392   0.392   0.392   0.392   0.392   0.392   0.392   0.392   0.392   0.392   0.392   0.392   0.392   0.392   0.392   0.392   0.392   0.392   0.392
   128.67    0.392   0.392   0.392   0.392   0.392   0.392   0.392   0.392   0.392   0.392   0.392   0.392   0.392   0.392   0.392   0.392   0.392   0.392   0.392   0.392   0.392   0.392   0.392   0.392   0.392   0.392   0.392   0.392   0.392   0.392   0.392
   123.83    0.392   0.392   0.392   0.392   0.392   0.392   0.392   0.392   0.392   0.392   0.392   0.392   0.392   0.392   0.392   0.392   0.392   0.392   0.392   0.392   0.392   0.392   0.392   0.392   0.392   0.392   0.392   0.392   0.392   0.392   0.392
   119.00    0.392   0.392   0.392   0.392   0.392   0.392   0.392   0.392   0.392   0.392   0.392   0.392   0.392   0.392   0.392   0.392   0.392   0.392   0.392   0.392   0.392   0.392   0.392   0.392   0.392   0.392   0.392   0.392   0.392   0.392   0.392
   114.17    0.392   0.392   0.392   0.392   0.392   0.392   0.392   0.392   0.392   0.392   0.392   0.392   0.392   0.392   0.392   0.392   0.392   0.392   0.392   0.392   0.392   0.392   0.392   0.392   0.392   0.392   0.392   0.392   0.392   0.392   0.392
   109.33    0.392   0.392   0.392   0.392   0.392   0.392   0.392   0.392   0.392   0.392   0.392   0.392   0.392   0.392   0.392   0.392   0.392   0.392   0.392   0.392   0.392   0.392   0.392   0.392   0.392   0.392   0.392   0.392   0.392   0.392   0.392
   104.50    0.392   0.392   0.392   0.392   0.392   0.392   0.392   0.392   0.392   0.392   0.392   0.392   0.392   0.392   0.392   0.392   0.392   0.392   0.392   0.392   0.392   0.392   0.392   0.392   0.392   0.392   0.392   0.392   0.392   0.392   0.392
    99.67    0.392   0.392   0.392   0.392   0.392   0.392   0.392   0.392   0.392   0.392   0.392   0.392   0.392   0.392   0.392   0.392   0.392   0.392   0.392   0.392   0.392   0.392   0.392   0.392   0.392   0.392   0.392   0.392   0.392   0.392   0.392
    94.83    0.392   0.392   0.392   0.392   0.392   0.392   0.392   0.392   0.392   0.392   0.392   0.392   0.392   0.392   0.392   0.392   0.392   0.392   0.392   0.392   0.392   0.392   0.392   0.392   0.392   0.392   0.392   0.392   0.392   0.392   0.392
    90.00    0.392   0.392   0.392   0.392   0.392   0.392   0.392   0.392   0.392   0.392   0.392   0.392   0.392   0.392   0.392   0.392   0.392   0.392   0.392   0.392   0.392   0.392   0.392   0.392   0.392   0.392   0.392   0.392   0.392   0.392   0.392
    85.17    0.392   0.392   0.392   0.392   0.392   0.392   0.392   0.392   0.392   0.392   0.392   0.392   0.392   0.392   0.392   0.392   0.392   0.392   0.392   0.392   0.392   0.392   0.392   0.392   0.392   0.392   0.392   0.392   0.392   0.392   0.392
    80.33    0.392   0.392   0.392   0.392   0.392   0.392   0.392   0.392   0.392   0.392   0.392   0.392   0.392   0.392   0.392   0.392   0.392   0.392   0.392   0.392   0.392   0.392   0.392   0.392   0.392   0.392   0.392   0.392   0.392   0.392   0.392
    75.50    0.392   0.392   0.392   0.392   0.392   0.392   0.392   0.392   0.392   0.392   0.392   0.392   0.392   0.392   0.392   0.392   0.392   0.392   0.392   0.392   0.392   0.392   0.392   0.392   0.392   0.392   0.392   0.392   0.392   0.392   0.392
    70.67    0.392   0.392   0.392   0.392   0.392   0.392   0.392   0.392   0.392   0.392   0.392   0.392   0.392   0.392   0.392   0.392   0.392   0.392   0.392   0.392   0.392   0.392   0.392   0.392   0.392   0.392   0.392   0.392   0.392   0.392   0.392
    65.83    0.392   0.392   0.392   0.392   0.392   0.392   0.392   0.392   0.392   0.392   0.392   0.392   0.392   0.392   0.392   0.392   0.392   0.392   0.392   0.392   0.392   0.392   0.392   0.392   0.392   0.392   0.392   0.392   0.392   0.392   0.392
    61.00    0.392   0.392   0.392   0.392   0.392   0.392   0.392   0.392   0.392   0.392   0.392   0.392   0.392   0.392   0.392   0.392   0.392   0.392   0.392   0.392   0.392   0.392   0.392   0.392   0.392   0.392   0.392   0.392   0.392   0.392   0.392
    56.17    0.392   0.392   0.392   0.392   0.392   0.392   0.392   0.392   0.392   0.392   0.392   0.392   0.392   0.392   0.392   0.392   0.392   0.392   0.392   0.392   0.392   0.392   0.392   0.392   0.392   0.392   0.392   0.392   0.392   0.392   0.392
    51.33    0.392   0.392   0.392   0.392   0.392   0.392   0.392   0.392   0.392   0.392   0.392   0.392   0.392   0.392   0.392   0.392   0.392   0.392   0.392   0.392   0.392   0.392   0.392   0.392   0.392   0.392   0.392   0.392   0.392   0.392   0.392
    46.50    0.392   0.392   0.392   0.392   0.392   0.392   0.392   0.392   0.392   0.392   0.392   0.392   0.392   0.392   0.392   0.392   0.392   0.392   0.392   0.392   0.392   0.392   0.392   0.392   0.392   0.392   0.392   0.392   0.392   0.392   0.392
    41.67    0.392   0.392   0.392   0.392   0.392   0.392   0.392   0.392   0.392   0.392   0.392   0.392   0.392   0.392   0.392   0.392   0.392   0.392   0.392   0.392   0.392   0.392   0.392   0.392   0.392   0.392   0.392   0.392   0.392   0.392   0.392
    36.83    0.392   0.392   0.392   0.392   0.392   0.392   0.392   0.392   0.392   0.392   0.392   0.392   0.392   0.392   0.392   0.392   0.392   0.392   0.392   0.392   0.392   0.392   0.392   0.392   0.392   0.392   0.392   0.392   0.392   0.392   0.392
    32.00    0.392   0.392   0.392   0.392   0.392   0.392   0.392   0.392   0.392   0.392   0.392   0.392   0.392   0.392   0.392   0.392   0.392   0.392   0.392   0.392   0.392   0.392   0.392   0.392   0.392   0.392   0.392   0.392   0.392   0.392   0.392
    27.17    0.392   0.392   0.392   0.392   0.392   0.392   0.392   0.392   0.392   0.392   0.392   0.392   0.392   0.392   0.392   0.392   0.392   0.392   0.392   0.392   0.392   0.392   0.392   0.392   0.392   0.392   0.392   0.392   0.392   0.392   0.392
    22.33    0.392   0.392   0.392   0.392   0.392   0.392   0.392   0.392   0.392   0.392   0.392   0.392   0.392   0.392   0.392   0.392   0.392   0.392   0.392   0.392   0.392   0.392   0.392   0.392   0.392   0.392   0.392   0.392   0.392   0.392   0.392
    17.50    0.392   0.392   0.392   0.392   0.392   0.392   0.392   0.392   0.392   0.392   0.392   0.392   0.392   0.392   0.392   0.392   0.392   0.392   0.392   0.392   0.392   0.392   0.392   0.392   0.392   0.392   0.392   0.392   0.392   0.392   0.392

   Mean standard deviation across all grid points:
      u component:    0.692 m/s
      v component:    0.615 m/s
      w component:    0.392 m/s


U-component (X) statistics from the interpolated hub point:

   Mean =   4.9513 m/s
   TI   =  15.0278 %


Processing complete.  378.78 CPU seconds used.
