
This summary file was generated by TurbSim (v2.00.07a-bjj, 14-Jun-2016) on 16-Feb-2019 at 10:10:01.


Runtime Options:

 685957985  Random seed #1
    RANLUX  Type of random number generator
         F  Output binary HH turbulence parameters?
         F  Output formatted turbulence parameters?
         F  Output AeroDyn HH files?
         T  Output AeroDyn FF files?
         F  Output BLADED FF files?
         T  Output tower data?
         F  Output formatted FF files?
         F  Output coherent turbulence time step file?
         T  Clockwise rotation when looking downwind?
 0 -  NONE  IEC turbulence models scaled to exact specified standard deviation


Turbine/Model Specifications:

        31  Vertical grid-point matrix dimension
        31  Horizontal grid-point matrix dimension
     0.050  Time step [seconds]
   630.000  Analysis time [seconds]
   630.000  Usable output time [seconds]
    90.000  Hub height [m]
   145.000  Grid height [m]
   145.000  Grid width [m]
     0.000  Vertical flow angle [degrees]
     0.000  Horizontal flow angle [degrees]


Meteorological Boundary Conditions:

    IECKAI  IEC Kaimal spectral model
         1  IEC standard: IEC 61400-1 Ed. 3: 2005
         B  IEC turbulence characteristic
       NTM  IEC Normal Turbulence Model
       N/A  IEC Extreme Turbulence Model (ETM) "c" parameter [m/s]
       PL   Wind profile type
    90.000  Reference height [m]
     5.000  Reference wind speed [m/s]
       N/A  Jet height [m]
     0.200  Power law exponent
     0.030  Surface roughness length [m]


Non-IEC Meteorological Boundary Conditions:

       N/A  Site latitude [degrees]
       N/A  Gradient Richardson number
       N/A  Friction or shear velocity [m/s]
       N/A  Mixing layer depth [m]
       N/A  Mean hub u'w' Reynolds stress
       N/A  Mean hub u'v' Reynolds stress
       N/A  Mean hub v'w' Reynolds stress


Spatial Coherence Models:

   GENERAL  u-component coherence model
   GENERAL  v-component coherence model
   GENERAL  w-component coherence model
(   12.000, 0.353E-03)  u-component coherence parameters
(*********,  0.00    )  v-component coherence parameters
(*********,  0.00    )  w-component coherence parameters
     0.000  Coherence exponent


You have requested that the following file(s) be generated:

   05_b.bts (AeroDyn/TurbSim full-field wind file)


Turbulence Simulation Scaling Parameter Summary:

   Turbulence model used                            =  IEC Kaimal
   Turbulence characteristic                        =  B
   IEC turbulence type                              =  Normal Turbulence Model
   IEC standard                                     =  IEC 61400-1 Ed. 3: 2005
   Mean wind speed at hub height                    =    5.000 m/s
   Expected value of turbulence intensity at 15 m/s =   14.000%
   Characteristic value of standard deviation       =    1.309 m/s
   Turbulence scale                                 =   42.000 m
   u-component integral scale                       =  340.200 m
   Coherency scale                                  =  340.200 m
   Characteristic value of hub turbulence intensity =   26.180%
   Gradient Richardson number                       =    0.000

   Wind profile type                                =  Power law
   Power law exponent                               =    0.200
   Mean shear across rotor disk                     =    0.014 (m/s)/m
   Assumed rotor diameter                           =  145.000 m
   Surface roughness length                         =    0.030 m

   Nyquist frequency of turbulent wind field        =   10.000 Hz

   Number of time steps in the FFT                  =    12600
   Number of time steps output                      =    12600
   Number of points simulated                       =      964


Mean Flow Angles:

   Vertical   =   0.0 degrees
   Horizontal =   0.0 degrees

Mean Wind Speed Profile:

   Height    Wind Speed   Horizontal Angle  Vertical Angle  U-comp (X)   V-comp (Y)   W-comp (Z)
     (m)        (m/s)         (degrees)       (degrees)       (m/s)        (m/s)        (m/s)   
   ------    ----------   ----------------  --------------  ----------   ----------   ----------
    162.5        5.63            0.00            0.00          5.63         0.00         0.00
    157.7        5.59            0.00            0.00          5.59         0.00         0.00
    152.8        5.56            0.00            0.00          5.56         0.00         0.00
    148.0        5.52            0.00            0.00          5.52         0.00         0.00
    143.2        5.49            0.00            0.00          5.49         0.00         0.00
    138.3        5.45            0.00            0.00          5.45         0.00         0.00
    133.5        5.41            0.00            0.00          5.41         0.00         0.00
    128.7        5.37            0.00            0.00          5.37         0.00         0.00
    123.8        5.33            0.00            0.00          5.33         0.00         0.00
    119.0        5.29            0.00            0.00          5.29         0.00         0.00
    114.2        5.24            0.00            0.00          5.24         0.00         0.00
    109.3        5.20            0.00            0.00          5.20         0.00         0.00
    104.5        5.15            0.00            0.00          5.15         0.00         0.00
     99.7        5.10            0.00            0.00          5.10         0.00         0.00
     94.8        5.05            0.00            0.00          5.05         0.00         0.00
     90.0        5.00            0.00            0.00          5.00         0.00         0.00
     85.2        4.95            0.00            0.00          4.95         0.00         0.00
     80.3        4.89            0.00            0.00          4.89         0.00         0.00
     75.5        4.83            0.00            0.00          4.83         0.00         0.00
     70.7        4.76            0.00            0.00          4.76         0.00         0.00
     65.8        4.70            0.00            0.00          4.70         0.00         0.00
     61.0        4.63            0.00            0.00          4.63         0.00         0.00
     56.2        4.55            0.00            0.00          4.55         0.00         0.00
     51.3        4.47            0.00            0.00          4.47         0.00         0.00
     46.5        4.38            0.00            0.00          4.38         0.00         0.00
     41.7        4.29            0.00            0.00          4.29         0.00         0.00
     36.8        4.18            0.00            0.00          4.18         0.00         0.00
     32.0        4.07            0.00            0.00          4.07         0.00         0.00
     27.2        3.93            0.00            0.00          3.93         0.00         0.00
     22.3        3.78            0.00            0.00          3.78         0.00         0.00
     17.5        3.60            0.00            0.00          3.60         0.00         0.00
     12.7        3.38            0.00            0.00          3.38         0.00         0.00
      7.8        3.07            0.00            0.00          3.07         0.00         0.00
      3.0        2.53            0.00            0.00          2.53         0.00         0.00


Harvested Random Seeds after Generation of the Random Numbers:

    169290450 K 1
            0 K 2


Hub-Height Simulated Turbulence Statistical Summary:

   Type of Wind        Min (m/s)   Mean (m/s)    Max (m/s)  Sigma (m/s)       TI (%)
   ----------------    ---------   ----------    ---------  -----------       ------
   Longitudinal (u)         1.36         5.00         9.10        1.266       25.318
   Lateral (v)             -3.14        -0.00         3.27        1.007       20.134
   Vertical (w)            -2.40        -0.00         2.11        0.642       12.838
   U component              1.36         5.00         9.10        1.266       25.318
   V component             -3.14        -0.00         3.27        1.007       20.134
   W component             -2.40        -0.00         2.11        0.642       12.838
   Horizontal (U&V)         1.80         5.10         9.49        1.260       24.702
   Total                    1.83         5.14         9.50        1.257       24.436

                       Min Reynolds     Mean Reynolds    Max Reynolds    Correlation
   Product             Stress (m/s)^2   Stress (m/s)^2   Stress (m/s)^2  Coefficient
   ----------------    --------------   --------------   --------------  -----------
   u'w'                     -4.183            -0.116             5.696        -0.143
   u'v'                    -12.067            -0.309             4.668        -0.243
   v'w'                     -5.420            -0.005             3.267        -0.008


   Friction Velocity (Ustar)  =      0.341 m/s
   Maximum Instantaneous TKE  =     12.561 (m/s)^2
   Maximum Instantaneous CTKE =      6.038 (m/s)^2


Grid Point Variance Summary:

   Y-coord  -72.50  -67.67  -62.83  -58.00  -53.17  -48.33  -43.50  -38.67  -33.83  -29.00  -24.17  -19.33  -14.50   -9.67   -4.83    0.00    4.83    9.67   14.50   19.33   24.17   29.00   33.83   38.67   43.50   48.33   53.17   58.00   62.83   67.67   72.50

   Height   Standard deviation at grid points for the u component:
   162.50    1.200   1.172   1.160   1.193   1.240   1.247   1.237   1.138   1.139   1.221   1.218   1.269   1.301   1.356   1.319   1.306   1.333   1.376   1.285   1.258   1.214   1.194   1.143   0.988   1.007   0.972   1.103   1.097   1.122   1.127   1.103
   157.67    1.028   1.099   1.063   1.174   1.155   1.208   1.167   1.159   1.179   1.274   1.177   1.260   1.366   1.397   1.340   1.356   1.316   1.349   1.288   1.256   1.120   1.129   1.051   1.054   1.083   1.054   1.092   1.211   1.249   1.285   1.246
   152.83    1.062   1.109   1.099   1.254   1.296   1.152   1.160   1.192   1.152   1.239   1.192   1.313   1.327   1.321   1.235   1.225   1.269   1.322   1.382   1.330   1.242   1.144   1.104   1.152   1.155   1.105   1.108   1.158   1.200   1.242   1.358
   148.00    1.149   1.101   1.103   1.108   1.217   1.270   1.174   1.144   1.136   1.179   1.195   1.222   1.335   1.240   1.279   1.243   1.289   1.399   1.364   1.244   1.213   1.244   1.212   1.225   1.194   1.121   1.176   1.192   1.273   1.249   1.386
   143.17    1.123   1.090   1.124   1.184   1.211   1.264   1.172   1.076   1.196   1.239   1.129   1.246   1.316   1.195   1.290   1.326   1.232   1.336   1.240   1.277   1.268   1.212   1.171   1.198   1.121   1.225   1.181   1.185   1.182   1.244   1.310
   138.33    1.156   1.128   1.135   1.198   1.315   1.250   1.127   1.145   1.199   1.264   1.185   1.265   1.230   1.119   1.192   1.288   1.228   1.195   1.284   1.292   1.201   1.207   1.134   1.051   1.025   1.098   1.115   1.132   1.223   1.318   1.287
   133.50    1.218   1.159   1.196   1.267   1.176   1.176   1.205   1.185   1.198   1.189   1.231   1.166   1.158   1.146   1.201   1.247   1.277   1.200   1.228   1.243   1.142   1.174   1.127   1.054   1.074   0.999   1.040   1.083   1.140   1.224   1.222
   128.67    1.114   1.136   1.210   1.207   1.236   1.131   1.189   1.128   1.123   1.165   1.126   1.210   1.215   1.188   1.179   1.221   1.250   1.196   1.123   1.182   1.046   1.085   1.048   1.109   1.024   1.048   1.034   1.105   1.184   1.211   1.185
   123.83    1.037   1.152   1.124   1.168   1.220   1.113   1.122   1.142   1.123   1.118   1.120   1.103   1.168   1.190   1.102   1.171   1.183   1.149   1.105   1.154   1.045   1.127   1.024   1.092   1.055   1.000   1.077   1.106   1.165   1.212   1.157
   119.00    1.144   1.133   1.158   1.112   1.169   1.192   1.141   1.120   1.174   1.102   1.137   1.088   1.143   1.074   1.152   1.093   1.154   1.138   1.097   1.145   1.134   1.044   1.038   1.075   1.040   1.047   1.124   1.130   1.176   1.264   1.334
   114.17    1.160   1.089   1.166   1.173   1.225   1.278   1.223   1.224   1.173   1.227   1.131   1.129   1.090   1.117   1.083   1.074   1.137   1.186   1.161   1.011   1.058   1.072   1.024   1.046   1.056   1.046   1.200   1.151   1.206   1.303   1.390
   109.33    1.088   1.097   1.145   1.130   1.196   1.181   1.206   1.137   1.077   1.137   1.177   1.140   1.117   1.103   1.062   1.088   1.129   1.122   1.214   1.085   1.072   1.056   1.088   1.150   1.078   1.082   1.093   1.105   1.167   1.214   1.327
   104.50    1.111   1.063   1.163   1.046   1.124   1.143   1.142   1.096   1.023   1.144   1.141   1.116   1.102   1.080   1.150   1.070   1.200   1.292   1.205   1.248   1.189   1.102   1.192   1.180   1.132   1.112   1.147   1.100   1.105   1.209   1.423
    99.67    1.216   1.188   1.158   1.102   1.203   1.169   1.206   1.145   1.189   1.182   1.130   0.997   1.085   1.083   1.085   1.162   1.215   1.232   1.304   1.207   1.193   1.151   1.203   1.254   1.105   1.051   1.156   1.143   1.255   1.320   1.395
    94.83    1.171   1.139   1.168   1.208   1.214   1.071   1.189   1.119   1.182   1.214   1.116   1.073   1.108   1.064   1.132   1.182   1.285   1.284   1.365   1.217   1.155   1.229   1.244   1.104   1.170   1.150   1.194   1.114   1.235   1.209   1.246
    90.00    1.098   1.157   1.155   1.188   1.142   1.109   1.191   1.266   1.222   1.207   1.173   1.159   1.160   1.152   1.247   1.266   1.270   1.302   1.383   1.285   1.216   1.297   1.248   1.132   1.258   1.199   1.155   1.093   1.148   1.213   1.321
    85.17    1.221   1.289   1.137   1.109   1.163   1.107   1.079   1.206   1.204   1.254   1.162   1.167   1.103   1.125   1.184   1.305   1.286   1.278   1.334   1.343   1.302   1.246   1.292   1.201   1.231   1.226   1.086   1.161   1.152   1.127   1.307
    80.33    1.249   1.308   1.185   1.101   1.070   1.071   1.129   1.196   1.159   1.156   1.117   1.116   1.189   1.188   1.294   1.283   1.272   1.197   1.280   1.357   1.357   1.350   1.386   1.284   1.176   1.157   1.229   1.156   1.114   1.127   1.288
    75.50    1.258   1.228   1.175   1.113   1.080   1.120   1.184   1.105   1.188   1.219   1.255   1.298   1.219   1.234   1.283   1.313   1.310   1.341   1.383   1.429   1.384   1.276   1.315   1.258   1.233   1.157   1.223   1.269   1.190   1.224   1.252
    70.67    1.208   1.227   1.161   1.075   1.076   1.051   1.169   1.108   1.059   1.207   1.205   1.281   1.301   1.271   1.246   1.264   1.381   1.442   1.519   1.490   1.377   1.381   1.452   1.297   1.249   1.224   1.313   1.327   1.397   1.314   1.321
    65.83    1.169   1.216   1.203   1.274   1.200   1.134   1.182   1.264   1.170   1.122   1.339   1.363   1.282   1.349   1.260   1.346   1.322   1.460   1.465   1.571   1.492   1.460   1.353   1.411   1.257   1.216   1.191   1.341   1.370   1.464   1.383
    61.00    1.237   1.255   1.330   1.363   1.352   1.178   1.058   1.195   1.144   1.134   1.288   1.296   1.289   1.319   1.320   1.314   1.403   1.473   1.516   1.440   1.558   1.583   1.431   1.422   1.308   1.347   1.293   1.313   1.445   1.397   1.280
    56.17    1.153   1.090   1.211   1.193   1.299   1.188   1.220   1.173   1.226   1.267   1.313   1.321   1.310   1.300   1.275   1.266   1.296   1.329   1.358   1.464   1.452   1.490   1.487   1.513   1.414   1.447   1.389   1.359   1.493   1.488   1.282
    51.33    1.148   1.123   1.097   1.140   1.214   1.300   1.150   1.186   1.167   1.156   1.206   1.309   1.339   1.304   1.285   1.263   1.287   1.255   1.311   1.407   1.422   1.531   1.460   1.391   1.412   1.361   1.320   1.383   1.464   1.417   1.263
    46.50    1.011   1.041   1.023   1.066   1.068   1.241   1.131   1.130   1.210   1.222   1.339   1.272   1.349   1.261   1.316   1.154   1.254   1.313   1.402   1.409   1.446   1.519   1.501   1.371   1.415   1.353   1.391   1.493   1.477   1.315   1.249
    41.67    1.189   1.015   0.963   0.992   1.059   1.183   1.215   1.243   1.321   1.323   1.462   1.368   1.363   1.366   1.303   1.167   1.198   1.308   1.322   1.391   1.483   1.508   1.425   1.530   1.446   1.498   1.536   1.471   1.297   1.201   1.279
    36.83    1.209   1.095   1.018   1.041   1.104   1.217   1.238   1.277   1.309   1.478   1.440   1.410   1.311   1.273   1.357   1.241   1.205   1.146   1.240   1.313   1.431   1.427   1.427   1.497   1.401   1.566   1.622   1.525   1.376   1.233   1.338
    32.00    1.265   1.177   1.071   1.060   1.154   1.136   1.281   1.382   1.429   1.470   1.315   1.354   1.395   1.432   1.464   1.376   1.295   1.164   1.207   1.417   1.586   1.646   1.553   1.639   1.515   1.578   1.623   1.546   1.412   1.258   1.495
    27.17    1.115   1.134   1.075   1.135   1.097   1.203   1.265   1.290   1.351   1.290   1.432   1.452   1.497   1.515   1.520   1.383   1.237   1.284   1.363   1.545   1.622   1.637   1.722   1.661   1.702   1.698   1.499   1.551   1.377   1.433   1.429
    22.33    1.093   1.036   1.029   1.045   1.155   1.148   1.318   1.369   1.214   1.279   1.351   1.469   1.491   1.621   1.610   1.427   1.378   1.452   1.468   1.595   1.474   1.586   1.564   1.669   1.709   1.697   1.482   1.446   1.444   1.428   1.380
    17.50    1.183   1.067   1.120   1.212   1.123   1.250   1.240   1.317   1.305   1.410   1.493   1.455   1.606   1.507   1.574   1.499   1.522   1.534   1.549   1.468   1.615   1.533   1.630   1.635   1.693   1.545   1.559   1.371   1.389   1.273   1.360

   Height   Standard deviation at grid points for the v component:
   162.50    1.007   1.007   1.007   1.007   1.007   1.007   1.007   1.007   1.007   1.007   1.007   1.007   1.007   1.007   1.007   1.007   1.007   1.007   1.007   1.007   1.007   1.007   1.007   1.007   1.007   1.007   1.007   1.007   1.007   1.007   1.007
   157.67    1.007   1.007   1.007   1.007   1.007   1.007   1.007   1.007   1.007   1.007   1.007   1.007   1.007   1.007   1.007   1.007   1.007   1.007   1.007   1.007   1.007   1.007   1.007   1.007   1.007   1.007   1.007   1.007   1.007   1.007   1.007
   152.83    1.007   1.007   1.007   1.007   1.007   1.007   1.007   1.007   1.007   1.007   1.007   1.007   1.007   1.007   1.007   1.007   1.007   1.007   1.007   1.007   1.007   1.007   1.007   1.007   1.007   1.007   1.007   1.007   1.007   1.007   1.007
   148.00    1.007   1.007   1.007   1.007   1.007   1.007   1.007   1.007   1.007   1.007   1.007   1.007   1.007   1.007   1.007   1.007   1.007   1.007   1.007   1.007   1.007   1.007   1.007   1.007   1.007   1.007   1.007   1.007   1.007   1.007   1.007
   143.17    1.007   1.007   1.007   1.007   1.007   1.007   1.007   1.007   1.007   1.007   1.007   1.007   1.007   1.007   1.007   1.007   1.007   1.007   1.007   1.007   1.007   1.007   1.007   1.007   1.007   1.007   1.007   1.007   1.007   1.007   1.007
   138.33    1.007   1.007   1.007   1.007   1.007   1.007   1.007   1.007   1.007   1.007   1.007   1.007   1.007   1.007   1.007   1.007   1.007   1.007   1.007   1.007   1.007   1.007   1.007   1.007   1.007   1.007   1.007   1.007   1.007   1.007   1.007
   133.50    1.007   1.007   1.007   1.007   1.007   1.007   1.007   1.007   1.007   1.007   1.007   1.007   1.007   1.007   1.007   1.007   1.007   1.007   1.007   1.007   1.007   1.007   1.007   1.007   1.007   1.007   1.007   1.007   1.007   1.007   1.007
   128.67    1.007   1.007   1.007   1.007   1.007   1.007   1.007   1.007   1.007   1.007   1.007   1.007   1.007   1.007   1.007   1.007   1.007   1.007   1.007   1.007   1.007   1.007   1.007   1.007   1.007   1.007   1.007   1.007   1.007   1.007   1.007
   123.83    1.007   1.007   1.007   1.007   1.007   1.007   1.007   1.007   1.007   1.007   1.007   1.007   1.007   1.007   1.007   1.007   1.007   1.007   1.007   1.007   1.007   1.007   1.007   1.007   1.007   1.007   1.007   1.007   1.007   1.007   1.007
   119.00    1.007   1.007   1.007   1.007   1.007   1.007   1.007   1.007   1.007   1.007   1.007   1.007   1.007   1.007   1.007   1.007   1.007   1.007   1.007   1.007   1.007   1.007   1.007   1.007   1.007   1.007   1.007   1.007   1.007   1.007   1.007
   114.17    1.007   1.007   1.007   1.007   1.007   1.007   1.007   1.007   1.007   1.007   1.007   1.007   1.007   1.007   1.007   1.007   1.007   1.007   1.007   1.007   1.007   1.007   1.007   1.007   1.007   1.007   1.007   1.007   1.007   1.007   1.007
   109.33    1.007   1.007   1.007   1.007   1.007   1.007   1.007   1.007   1.007   1.007   1.007   1.007   1.007   1.007   1.007   1.007   1.007   1.007   1.007   1.007   1.007   1.007   1.007   1.007   1.007   1.007   1.007   1.007   1.007   1.007   1.007
   104.50    1.007   1.007   1.007   1.007   1.007   1.007   1.007   1.007   1.007   1.007   1.007   1.007   1.007   1.007   1.007   1.007   1.007   1.007   1.007   1.007   1.007   1.007   1.007   1.007   1.007   1.007   1.007   1.007   1.007   1.007   1.007
    99.67    1.007   1.007   1.007   1.007   1.007   1.007   1.007   1.007   1.007   1.007   1.007   1.007   1.007   1.007   1.007   1.007   1.007   1.007   1.007   1.007   1.007   1.007   1.007   1.007   1.007   1.007   1.007   1.007   1.007   1.007   1.007
    94.83    1.007   1.007   1.007   1.007   1.007   1.007   1.007   1.007   1.007   1.007   1.007   1.007   1.007   1.007   1.007   1.007   1.007   1.007   1.007   1.007   1.007   1.007   1.007   1.007   1.007   1.007   1.007   1.007   1.007   1.007   1.007
    90.00    1.007   1.007   1.007   1.007   1.007   1.007   1.007   1.007   1.007   1.007   1.007   1.007   1.007   1.007   1.007   1.007   1.007   1.007   1.007   1.007   1.007   1.007   1.007   1.007   1.007   1.007   1.007   1.007   1.007   1.007   1.007
    85.17    1.007   1.007   1.007   1.007   1.007   1.007   1.007   1.007   1.007   1.007   1.007   1.007   1.007   1.007   1.007   1.007   1.007   1.007   1.007   1.007   1.007   1.007   1.007   1.007   1.007   1.007   1.007   1.007   1.007   1.007   1.007
    80.33    1.007   1.007   1.007   1.007   1.007   1.007   1.007   1.007   1.007   1.007   1.007   1.007   1.007   1.007   1.007   1.007   1.007   1.007   1.007   1.007   1.007   1.007   1.007   1.007   1.007   1.007   1.007   1.007   1.007   1.007   1.007
    75.50    1.007   1.007   1.007   1.007   1.007   1.007   1.007   1.007   1.007   1.007   1.007   1.007   1.007   1.007   1.007   1.007   1.007   1.007   1.007   1.007   1.007   1.007   1.007   1.007   1.007   1.007   1.007   1.007   1.007   1.007   1.007
    70.67    1.007   1.007   1.007   1.007   1.007   1.007   1.007   1.007   1.007   1.007   1.007   1.007   1.007   1.007   1.007   1.007   1.007   1.007   1.007   1.007   1.007   1.007   1.007   1.007   1.007   1.007   1.007   1.007   1.007   1.007   1.007
    65.83    1.007   1.007   1.007   1.007   1.007   1.007   1.007   1.007   1.007   1.007   1.007   1.007   1.007   1.007   1.007   1.007   1.007   1.007   1.007   1.007   1.007   1.007   1.007   1.007   1.007   1.007   1.007   1.007   1.007   1.007   1.007
    61.00    1.007   1.007   1.007   1.007   1.007   1.007   1.007   1.007   1.007   1.007   1.007   1.007   1.007   1.007   1.007   1.007   1.007   1.007   1.007   1.007   1.007   1.007   1.007   1.007   1.007   1.007   1.007   1.007   1.007   1.007   1.007
    56.17    1.007   1.007   1.007   1.007   1.007   1.007   1.007   1.007   1.007   1.007   1.007   1.007   1.007   1.007   1.007   1.007   1.007   1.007   1.007   1.007   1.007   1.007   1.007   1.007   1.007   1.007   1.007   1.007   1.007   1.007   1.007
    51.33    1.007   1.007   1.007   1.007   1.007   1.007   1.007   1.007   1.007   1.007   1.007   1.007   1.007   1.007   1.007   1.007   1.007   1.007   1.007   1.007   1.007   1.007   1.007   1.007   1.007   1.007   1.007   1.007   1.007   1.007   1.007
    46.50    1.007   1.007   1.007   1.007   1.007   1.007   1.007   1.007   1.007   1.007   1.007   1.007   1.007   1.007   1.007   1.007   1.007   1.007   1.007   1.007   1.007   1.007   1.007   1.007   1.007   1.007   1.007   1.007   1.007   1.007   1.007
    41.67    1.007   1.007   1.007   1.007   1.007   1.007   1.007   1.007   1.007   1.007   1.007   1.007   1.007   1.007   1.007   1.007   1.007   1.007   1.007   1.007   1.007   1.007   1.007   1.007   1.007   1.007   1.007   1.007   1.007   1.007   1.007
    36.83    1.007   1.007   1.007   1.007   1.007   1.007   1.007   1.007   1.007   1.007   1.007   1.007   1.007   1.007   1.007   1.007   1.007   1.007   1.007   1.007   1.007   1.007   1.007   1.007   1.007   1.007   1.007   1.007   1.007   1.007   1.007
    32.00    1.007   1.007   1.007   1.007   1.007   1.007   1.007   1.007   1.007   1.007   1.007   1.007   1.007   1.007   1.007   1.007   1.007   1.007   1.007   1.007   1.007   1.007   1.007   1.007   1.007   1.007   1.007   1.007   1.007   1.007   1.007
    27.17    1.007   1.007   1.007   1.007   1.007   1.007   1.007   1.007   1.007   1.007   1.007   1.007   1.007   1.007   1.007   1.007   1.007   1.007   1.007   1.007   1.007   1.007   1.007   1.007   1.007   1.007   1.007   1.007   1.007   1.007   1.007
    22.33    1.007   1.007   1.007   1.007   1.007   1.007   1.007   1.007   1.007   1.007   1.007   1.007   1.007   1.007   1.007   1.007   1.007   1.007   1.007   1.007   1.007   1.007   1.007   1.007   1.007   1.007   1.007   1.007   1.007   1.007   1.007
    17.50    1.007   1.007   1.007   1.007   1.007   1.007   1.007   1.007   1.007   1.007   1.007   1.007   1.007   1.007   1.007   1.007   1.007   1.007   1.007   1.007   1.007   1.007   1.007   1.007   1.007   1.007   1.007   1.007   1.007   1.007   1.007

   Height   Standard deviation at grid points for the w component:
   162.50    0.642   0.642   0.642   0.642   0.642   0.642   0.642   0.642   0.642   0.642   0.642   0.642   0.642   0.642   0.642   0.642   0.642   0.642   0.642   0.642   0.642   0.642   0.642   0.642   0.642   0.642   0.642   0.642   0.642   0.642   0.642
   157.67    0.642   0.642   0.642   0.642   0.642   0.642   0.642   0.642   0.642   0.642   0.642   0.642   0.642   0.642   0.642   0.642   0.642   0.642   0.642   0.642   0.642   0.642   0.642   0.642   0.642   0.642   0.642   0.642   0.642   0.642   0.642
   152.83    0.642   0.642   0.642   0.642   0.642   0.642   0.642   0.642   0.642   0.642   0.642   0.642   0.642   0.642   0.642   0.642   0.642   0.642   0.642   0.642   0.642   0.642   0.642   0.642   0.642   0.642   0.642   0.642   0.642   0.642   0.642
   148.00    0.642   0.642   0.642   0.642   0.642   0.642   0.642   0.642   0.642   0.642   0.642   0.642   0.642   0.642   0.642   0.642   0.642   0.642   0.642   0.642   0.642   0.642   0.642   0.642   0.642   0.642   0.642   0.642   0.642   0.642   0.642
   143.17    0.642   0.642   0.642   0.642   0.642   0.642   0.642   0.642   0.642   0.642   0.642   0.642   0.642   0.642   0.642   0.642   0.642   0.642   0.642   0.642   0.642   0.642   0.642   0.642   0.642   0.642   0.642   0.642   0.642   0.642   0.642
   138.33    0.642   0.642   0.642   0.642   0.642   0.642   0.642   0.642   0.642   0.642   0.642   0.642   0.642   0.642   0.642   0.642   0.642   0.642   0.642   0.642   0.642   0.642   0.642   0.642   0.642   0.642   0.642   0.642   0.642   0.642   0.642
   133.50    0.642   0.642   0.642   0.642   0.642   0.642   0.642   0.642   0.642   0.642   0.642   0.642   0.642   0.642   0.642   0.642   0.642   0.642   0.642   0.642   0.642   0.642   0.642   0.642   0.642   0.642   0.642   0.642   0.642   0.642   0.642
   128.67    0.642   0.642   0.642   0.642   0.642   0.642   0.642   0.642   0.642   0.642   0.642   0.642   0.642   0.642   0.642   0.642   0.642   0.642   0.642   0.642   0.642   0.642   0.642   0.642   0.642   0.642   0.642   0.642   0.642   0.642   0.642
   123.83    0.642   0.642   0.642   0.642   0.642   0.642   0.642   0.642   0.642   0.642   0.642   0.642   0.642   0.642   0.642   0.642   0.642   0.642   0.642   0.642   0.642   0.642   0.642   0.642   0.642   0.642   0.642   0.642   0.642   0.642   0.642
   119.00    0.642   0.642   0.642   0.642   0.642   0.642   0.642   0.642   0.642   0.642   0.642   0.642   0.642   0.642   0.642   0.642   0.642   0.642   0.642   0.642   0.642   0.642   0.642   0.642   0.642   0.642   0.642   0.642   0.642   0.642   0.642
   114.17    0.642   0.642   0.642   0.642   0.642   0.642   0.642   0.642   0.642   0.642   0.642   0.642   0.642   0.642   0.642   0.642   0.642   0.642   0.642   0.642   0.642   0.642   0.642   0.642   0.642   0.642   0.642   0.642   0.642   0.642   0.642
   109.33    0.642   0.642   0.642   0.642   0.642   0.642   0.642   0.642   0.642   0.642   0.642   0.642   0.642   0.642   0.642   0.642   0.642   0.642   0.642   0.642   0.642   0.642   0.642   0.642   0.642   0.642   0.642   0.642   0.642   0.642   0.642
   104.50    0.642   0.642   0.642   0.642   0.642   0.642   0.642   0.642   0.642   0.642   0.642   0.642   0.642   0.642   0.642   0.642   0.642   0.642   0.642   0.642   0.642   0.642   0.642   0.642   0.642   0.642   0.642   0.642   0.642   0.642   0.642
    99.67    0.642   0.642   0.642   0.642   0.642   0.642   0.642   0.642   0.642   0.642   0.642   0.642   0.642   0.642   0.642   0.642   0.642   0.642   0.642   0.642   0.642   0.642   0.642   0.642   0.642   0.642   0.642   0.642   0.642   0.642   0.642
    94.83    0.642   0.642   0.642   0.642   0.642   0.642   0.642   0.642   0.642   0.642   0.642   0.642   0.642   0.642   0.642   0.642   0.642   0.642   0.642   0.642   0.642   0.642   0.642   0.642   0.642   0.642   0.642   0.642   0.642   0.642   0.642
    90.00    0.642   0.642   0.642   0.642   0.642   0.642   0.642   0.642   0.642   0.642   0.642   0.642   0.642   0.642   0.642   0.642   0.642   0.642   0.642   0.642   0.642   0.642   0.642   0.642   0.642   0.642   0.642   0.642   0.642   0.642   0.642
    85.17    0.642   0.642   0.642   0.642   0.642   0.642   0.642   0.642   0.642   0.642   0.642   0.642   0.642   0.642   0.642   0.642   0.642   0.642   0.642   0.642   0.642   0.642   0.642   0.642   0.642   0.642   0.642   0.642   0.642   0.642   0.642
    80.33    0.642   0.642   0.642   0.642   0.642   0.642   0.642   0.642   0.642   0.642   0.642   0.642   0.642   0.642   0.642   0.642   0.642   0.642   0.642   0.642   0.642   0.642   0.642   0.642   0.642   0.642   0.642   0.642   0.642   0.642   0.642
    75.50    0.642   0.642   0.642   0.642   0.642   0.642   0.642   0.642   0.642   0.642   0.642   0.642   0.642   0.642   0.642   0.642   0.642   0.642   0.642   0.642   0.642   0.642   0.642   0.642   0.642   0.642   0.642   0.642   0.642   0.642   0.642
    70.67    0.642   0.642   0.642   0.642   0.642   0.642   0.642   0.642   0.642   0.642   0.642   0.642   0.642   0.642   0.642   0.642   0.642   0.642   0.642   0.642   0.642   0.642   0.642   0.642   0.642   0.642   0.642   0.642   0.642   0.642   0.642
    65.83    0.642   0.642   0.642   0.642   0.642   0.642   0.642   0.642   0.642   0.642   0.642   0.642   0.642   0.642   0.642   0.642   0.642   0.642   0.642   0.642   0.642   0.642   0.642   0.642   0.642   0.642   0.642   0.642   0.642   0.642   0.642
    61.00    0.642   0.642   0.642   0.642   0.642   0.642   0.642   0.642   0.642   0.642   0.642   0.642   0.642   0.642   0.642   0.642   0.642   0.642   0.642   0.642   0.642   0.642   0.642   0.642   0.642   0.642   0.642   0.642   0.642   0.642   0.642
    56.17    0.642   0.642   0.642   0.642   0.642   0.642   0.642   0.642   0.642   0.642   0.642   0.642   0.642   0.642   0.642   0.642   0.642   0.642   0.642   0.642   0.642   0.642   0.642   0.642   0.642   0.642   0.642   0.642   0.642   0.642   0.642
    51.33    0.642   0.642   0.642   0.642   0.642   0.642   0.642   0.642   0.642   0.642   0.642   0.642   0.642   0.642   0.642   0.642   0.642   0.642   0.642   0.642   0.642   0.642   0.642   0.642   0.642   0.642   0.642   0.642   0.642   0.642   0.642
    46.50    0.642   0.642   0.642   0.642   0.642   0.642   0.642   0.642   0.642   0.642   0.642   0.642   0.642   0.642   0.642   0.642   0.642   0.642   0.642   0.642   0.642   0.642   0.642   0.642   0.642   0.642   0.642   0.642   0.642   0.642   0.642
    41.67    0.642   0.642   0.642   0.642   0.642   0.642   0.642   0.642   0.642   0.642   0.642   0.642   0.642   0.642   0.642   0.642   0.642   0.642   0.642   0.642   0.642   0.642   0.642   0.642   0.642   0.642   0.642   0.642   0.642   0.642   0.642
    36.83    0.642   0.642   0.642   0.642   0.642   0.642   0.642   0.642   0.642   0.642   0.642   0.642   0.642   0.642   0.642   0.642   0.642   0.642   0.642   0.642   0.642   0.642   0.642   0.642   0.642   0.642   0.642   0.642   0.642   0.642   0.642
    32.00    0.642   0.642   0.642   0.642   0.642   0.642   0.642   0.642   0.642   0.642   0.642   0.642   0.642   0.642   0.642   0.642   0.642   0.642   0.642   0.642   0.642   0.642   0.642   0.642   0.642   0.642   0.642   0.642   0.642   0.642   0.642
    27.17    0.642   0.642   0.642   0.642   0.642   0.642   0.642   0.642   0.642   0.642   0.642   0.642   0.642   0.642   0.642   0.642   0.642   0.642   0.642   0.642   0.642   0.642   0.642   0.642   0.642   0.642   0.642   0.642   0.642   0.642   0.642
    22.33    0.642   0.642   0.642   0.642   0.642   0.642   0.642   0.642   0.642   0.642   0.642   0.642   0.642   0.642   0.642   0.642   0.642   0.642   0.642   0.642   0.642   0.642   0.642   0.642   0.642   0.642   0.642   0.642   0.642   0.642   0.642
    17.50    0.642   0.642   0.642   0.642   0.642   0.642   0.642   0.642   0.642   0.642   0.642   0.642   0.642   0.642   0.642   0.642   0.642   0.642   0.642   0.642   0.642   0.642   0.642   0.642   0.642   0.642   0.642   0.642   0.642   0.642   0.642

   Mean standard deviation across all grid points:
      u component:    1.242 m/s
      v component:    1.007 m/s
      w component:    0.642 m/s


U-component (X) statistics from the interpolated hub point:

   Mean =   5.0000 m/s
   TI   =  25.3180 %


Processing complete.  217.06 CPU seconds used.
