
This summary file was generated by TurbSim (v2.01.00-max, 20-02-2019) on 22-Feb-2019 at 10:40:30.


Runtime Options:

**********  Random seed #1
    RANLUX  Type of random number generator
         F  Output binary HH turbulence parameters?
         F  Output formatted turbulence parameters?
         F  Output AeroDyn HH files?
         T  Output AeroDyn FF files?
         F  Output BLADED FF files?
         T  Output tower data?
         F  Output formatted FF files?
         F  Output coherent turbulence time step file?
         T  Clockwise rotation when looking downwind?
 0 -  NONE  IEC turbulence models scaled to exact specified standard deviation


Turbine/Model Specifications:

        31  Vertical grid-point matrix dimension
        31  Horizontal grid-point matrix dimension
     0.050  Time step [seconds]
   630.000  Analysis time [seconds]
   630.000  Usable output time [seconds]
    90.000  Hub height [m]
   145.000  Grid height [m]
   145.000  Grid width [m]
     8.000  Vertical flow angle [degrees]
     0.000  Horizontal flow angle [degrees]


Meteorological Boundary Conditions:

    IECKAI  IEC Kaimal spectral model
         1  IEC standard: IEC 61400-1 Ed. 3: 2005
    16.000  Percent turbulence intensity, IEC 61400-1 Ed. 3: 2005
       NTM  IEC Normal Turbulence Model
       N/A  IEC Extreme Turbulence Model (ETM) "c" parameter [m/s]
       PL   Wind profile type
    90.000  Reference height [m]
     8.000  Reference wind speed [m/s]
       N/A  Jet height [m]
     0.200  Power law exponent
     0.030  Surface roughness length [m]


Non-IEC Meteorological Boundary Conditions:

       N/A  Site latitude [degrees]
       N/A  Gradient Richardson number
       N/A  Friction or shear velocity [m/s]
       N/A  Mixing layer depth [m]
       N/A  Mean hub u'w' Reynolds stress
       N/A  Mean hub u'v' Reynolds stress
       N/A  Mean hub v'w' Reynolds stress


Spatial Coherence Models:

       IEC  u-component coherence model
       IEC  v-component coherence model
       IEC  w-component coherence model
(   12.000, 0.353E-03)  u-component coherence parameters
(*********,  0.00    )  v-component coherence parameters
(*********,  0.00    )  w-component coherence parameters
       N/A  Coherence exponent


You have requested that the following file(s) be generated:

   08_a.bts (AeroDyn/TurbSim full-field wind file)


Turbulence Simulation Scaling Parameter Summary:

   Turbulence model used                            =  IEC Kaimal
   Turbulence characteristic                        =  User-specified
   IEC standard                                     =  IEC 61400-1 Ed. 3: 2005
   Mean wind speed at hub height                    =    8.000 m/s
   Characteristic value of standard deviation       =    1.280 m/s
   Turbulence scale                                 =   42.000 m
   u-component integral scale                       =  340.200 m
   Coherency scale                                  =  340.200 m
   Characteristic value of hub turbulence intensity =   16.000%
   Gradient Richardson number                       =    0.000

   Wind profile type                                =  Power law
   Power law exponent                               =    0.200
   Mean shear across rotor disk                     =    0.022 (m/s)/m
   Assumed rotor diameter                           =  145.000 m
   Surface roughness length                         =    0.030 m

   Nyquist frequency of turbulent wind field        =   10.000 Hz

   Number of time steps in the FFT                  =    12600
   Number of time steps output                      =    12600
   Number of points simulated                       =      964


Mean Flow Angles:

   Vertical   =   8.0 degrees
   Horizontal =   0.0 degrees

Mean Wind Speed Profile:

   Height    Wind Speed   Horizontal Angle  Vertical Angle  U-comp (X)   V-comp (Y)   W-comp (Z)
     (m)        (m/s)         (degrees)       (degrees)       (m/s)        (m/s)        (m/s)   
   ------    ----------   ----------------  --------------  ----------   ----------   ----------
    162.5        9.00            0.00            8.00          8.92         0.00         1.25
    157.7        8.95            0.00            8.00          8.86         0.00         1.25
    152.8        8.89            0.00            8.00          8.81         0.00         1.24
    148.0        8.84            0.00            8.00          8.75         0.00         1.23
    143.2        8.78            0.00            8.00          8.69         0.00         1.22
    138.3        8.72            0.00            8.00          8.63         0.00         1.21
    133.5        8.66            0.00            8.00          8.57         0.00         1.20
    128.7        8.59            0.00            8.00          8.51         0.00         1.20
    123.8        8.53            0.00            8.00          8.44         0.00         1.19
    119.0        8.46            0.00            8.00          8.38         0.00         1.18
    114.2        8.39            0.00            8.00          8.31         0.00         1.17
    109.3        8.32            0.00            8.00          8.24         0.00         1.16
    104.5        8.24            0.00            8.00          8.16         0.00         1.15
     99.7        8.16            0.00            8.00          8.09         0.00         1.14
     94.8        8.08            0.00            8.00          8.01         0.00         1.13
     90.0        8.00            0.00            8.00          7.92         0.00         1.11
     85.2        7.91            0.00            8.00          7.84         0.00         1.10
     80.3        7.82            0.00            8.00          7.74         0.00         1.09
     75.5        7.72            0.00            8.00          7.65         0.00         1.07
     70.7        7.62            0.00            8.00          7.55         0.00         1.06
     65.8        7.52            0.00            8.00          7.44         0.00         1.05
     61.0        7.40            0.00            8.00          7.33         0.00         1.03
     56.2        7.28            0.00            8.00          7.21         0.00         1.01
     51.3        7.15            0.00            8.00          7.08         0.00         1.00
     46.5        7.01            0.00            8.00          6.94         0.00         0.98
     41.7        6.86            0.00            8.00          6.79         0.00         0.95
     36.8        6.69            0.00            8.00          6.63         0.00         0.93
     32.0        6.51            0.00            8.00          6.44         0.00         0.91
     27.2        6.30            0.00            8.00          6.23         0.00         0.88
     22.3        6.05            0.00            8.00          5.99         0.00         0.84
     17.5        5.77            0.00            8.00          5.71         0.00         0.80
     12.7        5.40            0.00            8.00          5.35         0.00         0.75
      7.8        4.91            0.00            8.00          4.86         0.00         0.68
      3.0        4.05            0.00            8.00          4.01         0.00         0.56


Harvested Random Seeds after Generation of the Random Numbers:

    169290450 K 1
            0 K 2


Hub-Height Simulated Turbulence Statistical Summary:

   Type of Wind        Min (m/s)   Mean (m/s)    Max (m/s)  Sigma (m/s)       TI (%)
   ----------------    ---------   ----------    ---------  -----------       ------
   Longitudinal (u)         5.24         8.00        11.71        0.848       10.598
   Lateral (v)             -3.30        -0.00         3.02        0.996       12.447
   Vertical (w)            -2.40         0.00         2.04        0.627        7.841
   U component              5.21         7.92        11.59        0.839       10.592
   V component             -3.30        -0.00         3.02        0.996       12.569
   W component             -1.09         1.11         3.23        0.639        8.066
   Horizontal (U&V)         5.23         7.99        11.60        0.831       10.409
   Total                    5.28         8.09        11.72        0.838       10.361

                       Min Reynolds     Mean Reynolds    Max Reynolds    Correlation
   Product             Stress (m/s)^2   Stress (m/s)^2   Stress (m/s)^2  Coefficient
   ----------------    --------------   --------------   --------------  -----------
   u'w'                     -3.620             0.031             2.884         0.058
   u'v'                     -5.769             0.028             5.183         0.033
   v'w'                     -4.232            -0.011             4.127        -0.017


   Friction Velocity (Ustar)  =      0.176 m/s
   Maximum Instantaneous TKE  =      6.934 (m/s)^2
   Maximum Instantaneous CTKE =      3.419 (m/s)^2


Grid Point Variance Summary:

   Y-coord  -72.50  -67.67  -62.83  -58.00  -53.17  -48.33  -43.50  -38.67  -33.83  -29.00  -24.17  -19.33  -14.50   -9.67   -4.83    0.00    4.83    9.67   14.50   19.33   24.17   29.00   33.83   38.67   43.50   48.33   53.17   58.00   62.83   67.67   72.50

   Height   Standard deviation at grid points for the u component:
   162.50    1.063   0.995   0.932   1.001   1.044   1.096   1.016   1.062   1.055   1.133   1.161   1.260   1.188   1.136   1.028   1.006   1.004   1.058   1.009   1.026   0.985   0.994   0.986   0.959   0.971   0.971   1.024   1.081   1.090   1.069   1.014
   157.67    1.026   1.019   0.957   1.066   1.026   1.120   1.106   1.094   1.121   1.109   1.208   1.210   1.183   1.076   1.026   0.980   1.021   1.120   1.052   0.991   1.004   1.038   0.995   0.941   0.943   1.045   1.067   1.041   1.074   1.042   1.032
   152.83    1.136   1.110   0.988   0.976   1.087   1.088   1.183   1.161   1.108   1.121   1.090   1.165   1.116   0.975   0.972   1.056   1.070   1.107   1.146   1.133   1.038   1.083   1.006   1.110   1.007   1.034   1.046   1.025   1.050   1.008   1.020
   148.00    1.148   1.090   1.018   0.987   1.054   1.105   1.186   1.157   1.131   1.122   1.064   1.116   1.150   1.028   1.093   1.137   1.128   1.111   1.193   1.074   1.077   1.063   1.066   1.086   1.086   1.050   1.029   1.040   1.026   1.144   1.095
   143.17    1.076   0.945   0.970   0.977   1.054   1.122   1.136   1.140   1.161   1.105   1.082   1.093   1.111   1.166   1.113   1.113   1.148   1.111   1.101   1.092   1.032   1.027   1.033   1.083   1.067   1.046   1.081   1.075   1.100   1.183   1.217
   138.33    1.118   1.028   0.952   0.967   1.015   1.100   1.132   1.119   1.121   1.084   1.081   1.092   1.080   1.031   1.024   1.098   1.117   1.067   1.066   1.060   0.986   0.975   1.033   1.109   1.083   1.072   1.075   1.227   1.139   1.146   1.252
   133.50    1.137   0.994   0.991   1.029   1.035   1.121   1.110   1.123   1.022   1.041   1.121   1.071   1.107   1.106   1.117   1.150   1.127   1.069   1.015   1.016   0.985   0.940   1.032   1.037   1.083   1.072   1.122   1.192   1.136   1.204   1.273
   128.67    1.039   0.948   0.991   0.960   1.021   1.039   1.080   1.060   1.056   1.077   1.042   1.059   1.061   1.042   1.036   1.002   0.998   1.049   1.035   0.940   0.922   0.954   0.938   0.979   1.081   1.153   1.196   1.230   1.189   1.210   1.185
   123.83    1.018   0.976   0.912   0.932   1.022   0.970   0.991   0.945   0.947   0.983   0.995   0.971   0.967   1.000   0.940   0.923   0.925   0.946   0.989   0.964   0.960   0.982   0.923   0.970   0.991   1.090   1.178   1.135   1.095   1.080   1.172
   119.00    0.998   0.970   0.945   0.946   0.998   1.029   0.976   0.854   0.868   0.887   0.922   0.907   0.826   0.901   0.860   0.904   0.890   0.916   0.912   0.962   0.952   0.950   0.947   1.017   1.038   1.043   1.047   1.067   1.075   1.056   1.094
   114.17    1.060   1.037   1.075   1.015   0.983   0.990   0.941   0.830   0.819   0.851   0.840   0.802   0.845   0.813   0.870   0.836   0.895   0.929   0.984   0.957   0.939   0.990   0.923   0.986   1.018   1.059   1.057   0.980   1.079   1.023   1.111
   109.33    1.056   1.031   1.022   1.034   0.953   0.975   0.995   0.902   0.866   0.810   0.829   0.888   0.828   0.868   0.836   0.799   0.876   0.909   0.985   0.982   0.922   1.021   0.972   0.960   0.958   1.064   1.054   0.966   1.029   0.999   0.992
   104.50    1.062   1.053   1.027   0.947   0.883   0.956   1.018   0.933   0.881   0.820   0.794   0.875   0.875   0.816   0.788   0.839   0.810   0.922   0.906   0.937   0.980   1.007   1.017   0.982   0.929   0.911   1.038   0.972   0.926   0.978   1.011
    99.67    1.012   0.982   1.007   0.993   0.900   0.975   1.045   1.016   1.032   0.890   0.880   0.947   0.881   0.895   0.891   0.860   0.795   0.810   0.870   0.869   0.979   0.955   0.950   0.918   0.991   1.018   0.996   0.966   0.937   0.960   1.083
    94.83    1.040   1.001   0.891   0.888   0.982   0.954   0.992   1.028   1.041   0.910   0.916   0.940   0.908   0.882   0.879   0.842   0.801   0.845   0.883   0.845   0.896   0.976   0.976   0.972   0.967   1.014   0.950   0.925   0.971   1.019   1.039
    90.00    1.012   1.007   0.947   1.011   0.974   0.941   0.969   1.053   1.000   1.022   1.001   1.023   1.013   0.935   0.920   0.848   0.824   0.840   0.839   0.846   0.851   0.891   0.995   1.077   1.116   1.006   1.001   0.979   0.968   1.072   1.177
    85.17    1.030   0.939   0.923   1.013   1.060   0.988   0.949   0.992   0.983   1.073   1.028   1.050   1.004   0.972   0.930   0.955   0.882   0.896   0.904   0.913   0.944   0.904   0.951   1.091   1.142   1.085   1.042   1.028   1.089   1.063   1.135
    80.33    1.029   0.973   0.992   0.977   1.031   0.950   0.959   0.980   1.059   1.106   1.040   1.013   1.010   1.017   0.954   0.919   0.941   0.990   0.971   0.994   0.952   0.942   1.057   1.052   1.079   1.066   1.113   1.089   1.124   1.205   1.135
    75.50    1.050   0.978   1.008   1.039   0.983   1.019   1.062   1.054   1.035   1.054   1.047   1.011   1.003   1.019   1.036   0.993   0.986   0.991   1.025   0.971   0.948   1.002   1.121   1.111   1.127   1.120   1.097   1.085   1.217   1.168   1.117
    70.67    1.091   1.112   1.076   1.084   1.115   1.057   1.117   1.050   1.012   1.003   1.072   1.045   1.087   1.028   0.987   1.026   1.006   1.005   1.058   1.041   0.977   0.997   1.125   1.093   1.074   1.070   1.144   1.207   1.179   1.294   1.222
    65.83    1.193   1.107   1.088   1.118   1.087   1.111   1.114   1.106   0.971   1.008   1.071   1.083   1.131   1.054   1.019   1.032   1.038   1.054   1.027   1.072   1.004   1.054   1.083   1.042   1.026   1.089   1.128   1.228   1.289   1.260   1.267
    61.00    1.135   1.219   1.132   1.119   1.141   1.131   1.062   1.083   1.023   1.047   1.034   1.024   1.082   1.065   1.126   1.130   1.096   1.049   1.036   1.016   1.042   1.109   1.042   1.098   1.017   1.120   1.221   1.189   1.246   1.212   1.246
    56.17    1.084   1.226   1.223   1.224   1.190   1.146   1.109   1.112   1.027   1.002   0.975   1.019   0.991   1.112   1.080   1.077   0.990   1.020   0.943   1.058   1.093   1.051   1.079   1.085   1.068   1.145   1.180   1.171   1.189   1.212   1.297
    51.33    1.110   1.166   1.216   1.188   1.184   1.103   1.061   1.099   1.065   1.044   0.995   1.024   1.046   1.061   1.081   1.030   1.032   1.009   1.040   1.027   1.089   1.078   1.113   1.163   1.203   1.213   1.182   1.110   1.212   1.261   1.304
    46.50    1.163   1.183   1.159   1.134   1.149   1.150   1.084   1.132   1.118   1.110   1.041   1.004   1.022   0.960   1.050   1.008   1.068   0.999   1.010   1.046   1.096   1.056   1.059   1.124   1.186   1.175   1.201   1.258   1.251   1.306   1.297
    41.67    1.188   1.234   1.170   1.233   1.202   1.122   1.019   1.093   1.138   1.088   1.045   0.985   0.952   0.950   0.973   1.002   1.026   1.090   1.023   1.001   1.108   1.119   1.154   1.190   1.137   1.155   1.213   1.302   1.266   1.318   1.304
    36.83    1.168   1.243   1.288   1.146   1.114   1.110   1.152   1.137   1.155   1.125   1.040   0.939   0.911   0.936   0.932   0.980   1.032   1.104   1.099   1.054   1.079   1.071   1.072   1.081   1.123   1.089   1.115   1.211   1.266   1.273   1.355
    32.00    1.131   1.143   1.253   1.202   1.127   1.109   1.103   1.105   1.128   1.034   0.926   0.912   0.911   0.937   1.049   1.002   1.008   1.039   1.079   1.057   1.106   0.955   0.994   0.998   1.002   1.055   1.136   1.172   1.215   1.281   1.285
    27.17    1.136   1.153   1.131   1.218   1.083   1.088   1.056   1.092   1.066   1.008   0.950   0.893   0.954   0.935   1.019   0.944   0.929   0.950   1.047   1.121   1.044   1.009   0.976   1.000   0.918   1.068   1.101   1.134   1.194   1.171   1.249
    22.33    1.183   1.187   1.144   1.201   1.086   1.126   1.151   1.072   1.008   1.024   0.947   0.919   0.964   0.971   0.984   0.932   1.007   1.028   1.065   1.061   0.997   0.948   0.965   0.917   0.960   0.976   1.070   1.153   1.201   1.209   1.205
    17.50    1.197   1.235   1.232   1.159   1.163   1.202   1.182   1.177   1.062   1.063   0.997   0.962   0.979   1.033   1.012   0.968   1.045   1.102   1.066   1.054   0.944   0.963   0.943   0.970   0.943   1.003   1.035   1.084   1.130   1.177   1.174

   Height   Standard deviation at grid points for the v component:
   162.50    0.996   0.996   0.996   0.996   0.996   0.996   0.996   0.996   0.996   0.996   0.996   0.996   0.996   0.996   0.996   0.996   0.996   0.996   0.996   0.996   0.996   0.996   0.996   0.996   0.996   0.996   0.996   0.996   0.996   0.996   0.996
   157.67    0.996   0.996   0.996   0.996   0.996   0.996   0.996   0.996   0.996   0.996   0.996   0.996   0.996   0.996   0.996   0.996   0.996   0.996   0.996   0.996   0.996   0.996   0.996   0.996   0.996   0.996   0.996   0.996   0.996   0.996   0.996
   152.83    0.996   0.996   0.996   0.996   0.996   0.996   0.996   0.996   0.996   0.996   0.996   0.996   0.996   0.996   0.996   0.996   0.996   0.996   0.996   0.996   0.996   0.996   0.996   0.996   0.996   0.996   0.996   0.996   0.996   0.996   0.996
   148.00    0.996   0.996   0.996   0.996   0.996   0.996   0.996   0.996   0.996   0.996   0.996   0.996   0.996   0.996   0.996   0.996   0.996   0.996   0.996   0.996   0.996   0.996   0.996   0.996   0.996   0.996   0.996   0.996   0.996   0.996   0.996
   143.17    0.996   0.996   0.996   0.996   0.996   0.996   0.996   0.996   0.996   0.996   0.996   0.996   0.996   0.996   0.996   0.996   0.996   0.996   0.996   0.996   0.996   0.996   0.996   0.996   0.996   0.996   0.996   0.996   0.996   0.996   0.996
   138.33    0.996   0.996   0.996   0.996   0.996   0.996   0.996   0.996   0.996   0.996   0.996   0.996   0.996   0.996   0.996   0.996   0.996   0.996   0.996   0.996   0.996   0.996   0.996   0.996   0.996   0.996   0.996   0.996   0.996   0.996   0.996
   133.50    0.996   0.996   0.996   0.996   0.996   0.996   0.996   0.996   0.996   0.996   0.996   0.996   0.996   0.996   0.996   0.996   0.996   0.996   0.996   0.996   0.996   0.996   0.996   0.996   0.996   0.996   0.996   0.996   0.996   0.996   0.996
   128.67    0.996   0.996   0.996   0.996   0.996   0.996   0.996   0.996   0.996   0.996   0.996   0.996   0.996   0.996   0.996   0.996   0.996   0.996   0.996   0.996   0.996   0.996   0.996   0.996   0.996   0.996   0.996   0.996   0.996   0.996   0.996
   123.83    0.996   0.996   0.996   0.996   0.996   0.996   0.996   0.996   0.996   0.996   0.996   0.996   0.996   0.996   0.996   0.996   0.996   0.996   0.996   0.996   0.996   0.996   0.996   0.996   0.996   0.996   0.996   0.996   0.996   0.996   0.996
   119.00    0.996   0.996   0.996   0.996   0.996   0.996   0.996   0.996   0.996   0.996   0.996   0.996   0.996   0.996   0.996   0.996   0.996   0.996   0.996   0.996   0.996   0.996   0.996   0.996   0.996   0.996   0.996   0.996   0.996   0.996   0.996
   114.17    0.996   0.996   0.996   0.996   0.996   0.996   0.996   0.996   0.996   0.996   0.996   0.996   0.996   0.996   0.996   0.996   0.996   0.996   0.996   0.996   0.996   0.996   0.996   0.996   0.996   0.996   0.996   0.996   0.996   0.996   0.996
   109.33    0.996   0.996   0.996   0.996   0.996   0.996   0.996   0.996   0.996   0.996   0.996   0.996   0.996   0.996   0.996   0.996   0.996   0.996   0.996   0.996   0.996   0.996   0.996   0.996   0.996   0.996   0.996   0.996   0.996   0.996   0.996
   104.50    0.996   0.996   0.996   0.996   0.996   0.996   0.996   0.996   0.996   0.996   0.996   0.996   0.996   0.996   0.996   0.996   0.996   0.996   0.996   0.996   0.996   0.996   0.996   0.996   0.996   0.996   0.996   0.996   0.996   0.996   0.996
    99.67    0.996   0.996   0.996   0.996   0.996   0.996   0.996   0.996   0.996   0.996   0.996   0.996   0.996   0.996   0.996   0.996   0.996   0.996   0.996   0.996   0.996   0.996   0.996   0.996   0.996   0.996   0.996   0.996   0.996   0.996   0.996
    94.83    0.996   0.996   0.996   0.996   0.996   0.996   0.996   0.996   0.996   0.996   0.996   0.996   0.996   0.996   0.996   0.996   0.996   0.996   0.996   0.996   0.996   0.996   0.996   0.996   0.996   0.996   0.996   0.996   0.996   0.996   0.996
    90.00    0.996   0.996   0.996   0.996   0.996   0.996   0.996   0.996   0.996   0.996   0.996   0.996   0.996   0.996   0.996   0.996   0.996   0.996   0.996   0.996   0.996   0.996   0.996   0.996   0.996   0.996   0.996   0.996   0.996   0.996   0.996
    85.17    0.996   0.996   0.996   0.996   0.996   0.996   0.996   0.996   0.996   0.996   0.996   0.996   0.996   0.996   0.996   0.996   0.996   0.996   0.996   0.996   0.996   0.996   0.996   0.996   0.996   0.996   0.996   0.996   0.996   0.996   0.996
    80.33    0.996   0.996   0.996   0.996   0.996   0.996   0.996   0.996   0.996   0.996   0.996   0.996   0.996   0.996   0.996   0.996   0.996   0.996   0.996   0.996   0.996   0.996   0.996   0.996   0.996   0.996   0.996   0.996   0.996   0.996   0.996
    75.50    0.996   0.996   0.996   0.996   0.996   0.996   0.996   0.996   0.996   0.996   0.996   0.996   0.996   0.996   0.996   0.996   0.996   0.996   0.996   0.996   0.996   0.996   0.996   0.996   0.996   0.996   0.996   0.996   0.996   0.996   0.996
    70.67    0.996   0.996   0.996   0.996   0.996   0.996   0.996   0.996   0.996   0.996   0.996   0.996   0.996   0.996   0.996   0.996   0.996   0.996   0.996   0.996   0.996   0.996   0.996   0.996   0.996   0.996   0.996   0.996   0.996   0.996   0.996
    65.83    0.996   0.996   0.996   0.996   0.996   0.996   0.996   0.996   0.996   0.996   0.996   0.996   0.996   0.996   0.996   0.996   0.996   0.996   0.996   0.996   0.996   0.996   0.996   0.996   0.996   0.996   0.996   0.996   0.996   0.996   0.996
    61.00    0.996   0.996   0.996   0.996   0.996   0.996   0.996   0.996   0.996   0.996   0.996   0.996   0.996   0.996   0.996   0.996   0.996   0.996   0.996   0.996   0.996   0.996   0.996   0.996   0.996   0.996   0.996   0.996   0.996   0.996   0.996
    56.17    0.996   0.996   0.996   0.996   0.996   0.996   0.996   0.996   0.996   0.996   0.996   0.996   0.996   0.996   0.996   0.996   0.996   0.996   0.996   0.996   0.996   0.996   0.996   0.996   0.996   0.996   0.996   0.996   0.996   0.996   0.996
    51.33    0.996   0.996   0.996   0.996   0.996   0.996   0.996   0.996   0.996   0.996   0.996   0.996   0.996   0.996   0.996   0.996   0.996   0.996   0.996   0.996   0.996   0.996   0.996   0.996   0.996   0.996   0.996   0.996   0.996   0.996   0.996
    46.50    0.996   0.996   0.996   0.996   0.996   0.996   0.996   0.996   0.996   0.996   0.996   0.996   0.996   0.996   0.996   0.996   0.996   0.996   0.996   0.996   0.996   0.996   0.996   0.996   0.996   0.996   0.996   0.996   0.996   0.996   0.996
    41.67    0.996   0.996   0.996   0.996   0.996   0.996   0.996   0.996   0.996   0.996   0.996   0.996   0.996   0.996   0.996   0.996   0.996   0.996   0.996   0.996   0.996   0.996   0.996   0.996   0.996   0.996   0.996   0.996   0.996   0.996   0.996
    36.83    0.996   0.996   0.996   0.996   0.996   0.996   0.996   0.996   0.996   0.996   0.996   0.996   0.996   0.996   0.996   0.996   0.996   0.996   0.996   0.996   0.996   0.996   0.996   0.996   0.996   0.996   0.996   0.996   0.996   0.996   0.996
    32.00    0.996   0.996   0.996   0.996   0.996   0.996   0.996   0.996   0.996   0.996   0.996   0.996   0.996   0.996   0.996   0.996   0.996   0.996   0.996   0.996   0.996   0.996   0.996   0.996   0.996   0.996   0.996   0.996   0.996   0.996   0.996
    27.17    0.996   0.996   0.996   0.996   0.996   0.996   0.996   0.996   0.996   0.996   0.996   0.996   0.996   0.996   0.996   0.996   0.996   0.996   0.996   0.996   0.996   0.996   0.996   0.996   0.996   0.996   0.996   0.996   0.996   0.996   0.996
    22.33    0.996   0.996   0.996   0.996   0.996   0.996   0.996   0.996   0.996   0.996   0.996   0.996   0.996   0.996   0.996   0.996   0.996   0.996   0.996   0.996   0.996   0.996   0.996   0.996   0.996   0.996   0.996   0.996   0.996   0.996   0.996
    17.50    0.996   0.996   0.996   0.996   0.996   0.996   0.996   0.996   0.996   0.996   0.996   0.996   0.996   0.996   0.996   0.996   0.996   0.996   0.996   0.996   0.996   0.996   0.996   0.996   0.996   0.996   0.996   0.996   0.996   0.996   0.996

   Height   Standard deviation at grid points for the w component:
   162.50    0.627   0.627   0.627   0.627   0.627   0.627   0.627   0.627   0.627   0.627   0.627   0.627   0.627   0.627   0.627   0.627   0.627   0.627   0.627   0.627   0.627   0.627   0.627   0.627   0.627   0.627   0.627   0.627   0.627   0.627   0.627
   157.67    0.627   0.627   0.627   0.627   0.627   0.627   0.627   0.627   0.627   0.627   0.627   0.627   0.627   0.627   0.627   0.627   0.627   0.627   0.627   0.627   0.627   0.627   0.627   0.627   0.627   0.627   0.627   0.627   0.627   0.627   0.627
   152.83    0.627   0.627   0.627   0.627   0.627   0.627   0.627   0.627   0.627   0.627   0.627   0.627   0.627   0.627   0.627   0.627   0.627   0.627   0.627   0.627   0.627   0.627   0.627   0.627   0.627   0.627   0.627   0.627   0.627   0.627   0.627
   148.00    0.627   0.627   0.627   0.627   0.627   0.627   0.627   0.627   0.627   0.627   0.627   0.627   0.627   0.627   0.627   0.627   0.627   0.627   0.627   0.627   0.627   0.627   0.627   0.627   0.627   0.627   0.627   0.627   0.627   0.627   0.627
   143.17    0.627   0.627   0.627   0.627   0.627   0.627   0.627   0.627   0.627   0.627   0.627   0.627   0.627   0.627   0.627   0.627   0.627   0.627   0.627   0.627   0.627   0.627   0.627   0.627   0.627   0.627   0.627   0.627   0.627   0.627   0.627
   138.33    0.627   0.627   0.627   0.627   0.627   0.627   0.627   0.627   0.627   0.627   0.627   0.627   0.627   0.627   0.627   0.627   0.627   0.627   0.627   0.627   0.627   0.627   0.627   0.627   0.627   0.627   0.627   0.627   0.627   0.627   0.627
   133.50    0.627   0.627   0.627   0.627   0.627   0.627   0.627   0.627   0.627   0.627   0.627   0.627   0.627   0.627   0.627   0.627   0.627   0.627   0.627   0.627   0.627   0.627   0.627   0.627   0.627   0.627   0.627   0.627   0.627   0.627   0.627
   128.67    0.627   0.627   0.627   0.627   0.627   0.627   0.627   0.627   0.627   0.627   0.627   0.627   0.627   0.627   0.627   0.627   0.627   0.627   0.627   0.627   0.627   0.627   0.627   0.627   0.627   0.627   0.627   0.627   0.627   0.627   0.627
   123.83    0.627   0.627   0.627   0.627   0.627   0.627   0.627   0.627   0.627   0.627   0.627   0.627   0.627   0.627   0.627   0.627   0.627   0.627   0.627   0.627   0.627   0.627   0.627   0.627   0.627   0.627   0.627   0.627   0.627   0.627   0.627
   119.00    0.627   0.627   0.627   0.627   0.627   0.627   0.627   0.627   0.627   0.627   0.627   0.627   0.627   0.627   0.627   0.627   0.627   0.627   0.627   0.627   0.627   0.627   0.627   0.627   0.627   0.627   0.627   0.627   0.627   0.627   0.627
   114.17    0.627   0.627   0.627   0.627   0.627   0.627   0.627   0.627   0.627   0.627   0.627   0.627   0.627   0.627   0.627   0.627   0.627   0.627   0.627   0.627   0.627   0.627   0.627   0.627   0.627   0.627   0.627   0.627   0.627   0.627   0.627
   109.33    0.627   0.627   0.627   0.627   0.627   0.627   0.627   0.627   0.627   0.627   0.627   0.627   0.627   0.627   0.627   0.627   0.627   0.627   0.627   0.627   0.627   0.627   0.627   0.627   0.627   0.627   0.627   0.627   0.627   0.627   0.627
   104.50    0.627   0.627   0.627   0.627   0.627   0.627   0.627   0.627   0.627   0.627   0.627   0.627   0.627   0.627   0.627   0.627   0.627   0.627   0.627   0.627   0.627   0.627   0.627   0.627   0.627   0.627   0.627   0.627   0.627   0.627   0.627
    99.67    0.627   0.627   0.627   0.627   0.627   0.627   0.627   0.627   0.627   0.627   0.627   0.627   0.627   0.627   0.627   0.627   0.627   0.627   0.627   0.627   0.627   0.627   0.627   0.627   0.627   0.627   0.627   0.627   0.627   0.627   0.627
    94.83    0.627   0.627   0.627   0.627   0.627   0.627   0.627   0.627   0.627   0.627   0.627   0.627   0.627   0.627   0.627   0.627   0.627   0.627   0.627   0.627   0.627   0.627   0.627   0.627   0.627   0.627   0.627   0.627   0.627   0.627   0.627
    90.00    0.627   0.627   0.627   0.627   0.627   0.627   0.627   0.627   0.627   0.627   0.627   0.627   0.627   0.627   0.627   0.627   0.627   0.627   0.627   0.627   0.627   0.627   0.627   0.627   0.627   0.627   0.627   0.627   0.627   0.627   0.627
    85.17    0.627   0.627   0.627   0.627   0.627   0.627   0.627   0.627   0.627   0.627   0.627   0.627   0.627   0.627   0.627   0.627   0.627   0.627   0.627   0.627   0.627   0.627   0.627   0.627   0.627   0.627   0.627   0.627   0.627   0.627   0.627
    80.33    0.627   0.627   0.627   0.627   0.627   0.627   0.627   0.627   0.627   0.627   0.627   0.627   0.627   0.627   0.627   0.627   0.627   0.627   0.627   0.627   0.627   0.627   0.627   0.627   0.627   0.627   0.627   0.627   0.627   0.627   0.627
    75.50    0.627   0.627   0.627   0.627   0.627   0.627   0.627   0.627   0.627   0.627   0.627   0.627   0.627   0.627   0.627   0.627   0.627   0.627   0.627   0.627   0.627   0.627   0.627   0.627   0.627   0.627   0.627   0.627   0.627   0.627   0.627
    70.67    0.627   0.627   0.627   0.627   0.627   0.627   0.627   0.627   0.627   0.627   0.627   0.627   0.627   0.627   0.627   0.627   0.627   0.627   0.627   0.627   0.627   0.627   0.627   0.627   0.627   0.627   0.627   0.627   0.627   0.627   0.627
    65.83    0.627   0.627   0.627   0.627   0.627   0.627   0.627   0.627   0.627   0.627   0.627   0.627   0.627   0.627   0.627   0.627   0.627   0.627   0.627   0.627   0.627   0.627   0.627   0.627   0.627   0.627   0.627   0.627   0.627   0.627   0.627
    61.00    0.627   0.627   0.627   0.627   0.627   0.627   0.627   0.627   0.627   0.627   0.627   0.627   0.627   0.627   0.627   0.627   0.627   0.627   0.627   0.627   0.627   0.627   0.627   0.627   0.627   0.627   0.627   0.627   0.627   0.627   0.627
    56.17    0.627   0.627   0.627   0.627   0.627   0.627   0.627   0.627   0.627   0.627   0.627   0.627   0.627   0.627   0.627   0.627   0.627   0.627   0.627   0.627   0.627   0.627   0.627   0.627   0.627   0.627   0.627   0.627   0.627   0.627   0.627
    51.33    0.627   0.627   0.627   0.627   0.627   0.627   0.627   0.627   0.627   0.627   0.627   0.627   0.627   0.627   0.627   0.627   0.627   0.627   0.627   0.627   0.627   0.627   0.627   0.627   0.627   0.627   0.627   0.627   0.627   0.627   0.627
    46.50    0.627   0.627   0.627   0.627   0.627   0.627   0.627   0.627   0.627   0.627   0.627   0.627   0.627   0.627   0.627   0.627   0.627   0.627   0.627   0.627   0.627   0.627   0.627   0.627   0.627   0.627   0.627   0.627   0.627   0.627   0.627
    41.67    0.627   0.627   0.627   0.627   0.627   0.627   0.627   0.627   0.627   0.627   0.627   0.627   0.627   0.627   0.627   0.627   0.627   0.627   0.627   0.627   0.627   0.627   0.627   0.627   0.627   0.627   0.627   0.627   0.627   0.627   0.627
    36.83    0.627   0.627   0.627   0.627   0.627   0.627   0.627   0.627   0.627   0.627   0.627   0.627   0.627   0.627   0.627   0.627   0.627   0.627   0.627   0.627   0.627   0.627   0.627   0.627   0.627   0.627   0.627   0.627   0.627   0.627   0.627
    32.00    0.627   0.627   0.627   0.627   0.627   0.627   0.627   0.627   0.627   0.627   0.627   0.627   0.627   0.627   0.627   0.627   0.627   0.627   0.627   0.627   0.627   0.627   0.627   0.627   0.627   0.627   0.627   0.627   0.627   0.627   0.627
    27.17    0.627   0.627   0.627   0.627   0.627   0.627   0.627   0.627   0.627   0.627   0.627   0.627   0.627   0.627   0.627   0.627   0.627   0.627   0.627   0.627   0.627   0.627   0.627   0.627   0.627   0.627   0.627   0.627   0.627   0.627   0.627
    22.33    0.627   0.627   0.627   0.627   0.627   0.627   0.627   0.627   0.627   0.627   0.627   0.627   0.627   0.627   0.627   0.627   0.627   0.627   0.627   0.627   0.627   0.627   0.627   0.627   0.627   0.627   0.627   0.627   0.627   0.627   0.627
    17.50    0.627   0.627   0.627   0.627   0.627   0.627   0.627   0.627   0.627   0.627   0.627   0.627   0.627   0.627   0.627   0.627   0.627   0.627   0.627   0.627   0.627   0.627   0.627   0.627   0.627   0.627   0.627   0.627   0.627   0.627   0.627

   Mean standard deviation across all grid points:
      u component:    1.045 m/s
      v component:    0.996 m/s
      w component:    0.627 m/s


U-component (X) statistics from the interpolated hub point:

   Mean =   7.9221 m/s
   TI   =  10.5917 %


Processing complete.  459.25 CPU seconds used.
