
This summary file was generated by TurbSim (v2.00.07a-bjj, 14-Jun-2016) on 15-Feb-2019 at 10:25:15.


Runtime Options:

1938669466  Random seed #1
    RANLUX  Type of random number generator
         F  Output binary HH turbulence parameters?
         F  Output formatted turbulence parameters?
         F  Output AeroDyn HH files?
         T  Output AeroDyn FF files?
         F  Output BLADED FF files?
         T  Output tower data?
         F  Output formatted FF files?
         F  Output coherent turbulence time step file?
         T  Clockwise rotation when looking downwind?
 0 -  NONE  IEC turbulence models scaled to exact specified standard deviation


Turbine/Model Specifications:

        31  Vertical grid-point matrix dimension
        31  Horizontal grid-point matrix dimension
     0.050  Time step [seconds]
   630.000  Analysis time [seconds]
   630.000  Usable output time [seconds]
    90.000  Hub height [m]
   145.000  Grid height [m]
   145.000  Grid width [m]
     0.000  Vertical flow angle [degrees]
     0.000  Horizontal flow angle [degrees]


Meteorological Boundary Conditions:

    IECKAI  IEC Kaimal spectral model
         1  IEC standard: IEC 61400-1 Ed. 3: 2005
         B  IEC turbulence characteristic
       NTM  IEC Normal Turbulence Model
       N/A  IEC Extreme Turbulence Model (ETM) "c" parameter [m/s]
       PL   Wind profile type
    90.000  Reference height [m]
     8.000  Reference wind speed [m/s]
       N/A  Jet height [m]
     0.200  Power law exponent
     0.030  Surface roughness length [m]


Non-IEC Meteorological Boundary Conditions:

       N/A  Site latitude [degrees]
       N/A  Gradient Richardson number
       N/A  Friction or shear velocity [m/s]
       N/A  Mixing layer depth [m]
       N/A  Mean hub u'w' Reynolds stress
       N/A  Mean hub u'v' Reynolds stress
       N/A  Mean hub v'w' Reynolds stress


Spatial Coherence Models:

   GENERAL  u-component coherence model
   GENERAL  v-component coherence model
   GENERAL  w-component coherence model
(   12.000, 0.353E-03)  u-component coherence parameters
(*********,  0.00    )  v-component coherence parameters
(*********,  0.00    )  w-component coherence parameters
     0.000  Coherence exponent


You have requested that the following file(s) be generated:

   08_a.bts (AeroDyn/TurbSim full-field wind file)


Turbulence Simulation Scaling Parameter Summary:

   Turbulence model used                            =  IEC Kaimal
   Turbulence characteristic                        =  B
   IEC turbulence type                              =  Normal Turbulence Model
   IEC standard                                     =  IEC 61400-1 Ed. 3: 2005
   Mean wind speed at hub height                    =    8.000 m/s
   Expected value of turbulence intensity at 15 m/s =   14.000%
   Characteristic value of standard deviation       =    1.624 m/s
   Turbulence scale                                 =   42.000 m
   u-component integral scale                       =  340.200 m
   Coherency scale                                  =  340.200 m
   Characteristic value of hub turbulence intensity =   20.300%
   Gradient Richardson number                       =    0.000

   Wind profile type                                =  Power law
   Power law exponent                               =    0.200
   Mean shear across rotor disk                     =    0.022 (m/s)/m
   Assumed rotor diameter                           =  145.000 m
   Surface roughness length                         =    0.030 m

   Nyquist frequency of turbulent wind field        =   10.000 Hz

   Number of time steps in the FFT                  =    12600
   Number of time steps output                      =    12600
   Number of points simulated                       =      964


Mean Flow Angles:

   Vertical   =   0.0 degrees
   Horizontal =   0.0 degrees

Mean Wind Speed Profile:

   Height    Wind Speed   Horizontal Angle  Vertical Angle  U-comp (X)   V-comp (Y)   W-comp (Z)
     (m)        (m/s)         (degrees)       (degrees)       (m/s)        (m/s)        (m/s)   
   ------    ----------   ----------------  --------------  ----------   ----------   ----------
    162.5        9.00            0.00            0.00          9.00         0.00         0.00
    157.7        8.95            0.00            0.00          8.95         0.00         0.00
    152.8        8.89            0.00            0.00          8.89         0.00         0.00
    148.0        8.84            0.00            0.00          8.84         0.00         0.00
    143.2        8.78            0.00            0.00          8.78         0.00         0.00
    138.3        8.72            0.00            0.00          8.72         0.00         0.00
    133.5        8.66            0.00            0.00          8.66         0.00         0.00
    128.7        8.59            0.00            0.00          8.59         0.00         0.00
    123.8        8.53            0.00            0.00          8.53         0.00         0.00
    119.0        8.46            0.00            0.00          8.46         0.00         0.00
    114.2        8.39            0.00            0.00          8.39         0.00         0.00
    109.3        8.32            0.00            0.00          8.32         0.00         0.00
    104.5        8.24            0.00            0.00          8.24         0.00         0.00
     99.7        8.16            0.00            0.00          8.16         0.00         0.00
     94.8        8.08            0.00            0.00          8.08         0.00         0.00
     90.0        8.00            0.00            0.00          8.00         0.00         0.00
     85.2        7.91            0.00            0.00          7.91         0.00         0.00
     80.3        7.82            0.00            0.00          7.82         0.00         0.00
     75.5        7.72            0.00            0.00          7.72         0.00         0.00
     70.7        7.62            0.00            0.00          7.62         0.00         0.00
     65.8        7.52            0.00            0.00          7.52         0.00         0.00
     61.0        7.40            0.00            0.00          7.40         0.00         0.00
     56.2        7.28            0.00            0.00          7.28         0.00         0.00
     51.3        7.15            0.00            0.00          7.15         0.00         0.00
     46.5        7.01            0.00            0.00          7.01         0.00         0.00
     41.7        6.86            0.00            0.00          6.86         0.00         0.00
     36.8        6.69            0.00            0.00          6.69         0.00         0.00
     32.0        6.51            0.00            0.00          6.51         0.00         0.00
     27.2        6.30            0.00            0.00          6.30         0.00         0.00
     22.3        6.05            0.00            0.00          6.05         0.00         0.00
     17.5        5.77            0.00            0.00          5.77         0.00         0.00
     12.7        5.40            0.00            0.00          5.40         0.00         0.00
      7.8        4.91            0.00            0.00          4.91         0.00         0.00
      3.0        4.05            0.00            0.00          4.05         0.00         0.00


Harvested Random Seeds after Generation of the Random Numbers:

    169290450 K 1
            0 K 2


Hub-Height Simulated Turbulence Statistical Summary:

   Type of Wind        Min (m/s)   Mean (m/s)    Max (m/s)  Sigma (m/s)       TI (%)
   ----------------    ---------   ----------    ---------  -----------       ------
   Longitudinal (u)         3.82         8.00        12.29        1.442       18.031
   Lateral (v)             -4.53        -0.00         3.59        1.263       15.792
   Vertical (w)            -2.85         0.00         2.84        0.796        9.949
   U component              3.82         8.00        12.29        1.442       18.031
   V component             -4.53        -0.00         3.59        1.263       15.792
   W component             -2.85         0.00         2.84        0.796        9.949
   Horizontal (U&V)         4.20         8.10        12.47        1.427       17.619
   Total                    4.22         8.14        12.48        1.419       17.431

                       Min Reynolds     Mean Reynolds    Max Reynolds    Correlation
   Product             Stress (m/s)^2   Stress (m/s)^2   Stress (m/s)^2  Coefficient
   ----------------    --------------   --------------   --------------  -----------
   u'w'                    -11.366            -0.115             5.492        -0.100
   u'v'                    -12.650            -0.249            10.801        -0.137
   v'w'                     -5.141             0.192             6.370         0.191


   Friction Velocity (Ustar)  =      0.339 m/s
   Maximum Instantaneous TKE  =     13.470 (m/s)^2
   Maximum Instantaneous CTKE =      7.055 (m/s)^2


Grid Point Variance Summary:

   Y-coord  -72.50  -67.67  -62.83  -58.00  -53.17  -48.33  -43.50  -38.67  -33.83  -29.00  -24.17  -19.33  -14.50   -9.67   -4.83    0.00    4.83    9.67   14.50   19.33   24.17   29.00   33.83   38.67   43.50   48.33   53.17   58.00   62.83   67.67   72.50

   Height   Standard deviation at grid points for the u component:
   162.50    1.659   1.617   1.555   1.583   1.470   1.459   1.421   1.489   1.578   1.638   1.538   1.402   1.406   1.272   1.287   1.304   1.216   1.243   1.347   1.367   1.336   1.386   1.328   1.344   1.263   1.228   1.238   1.265   1.374   1.338   1.267
   157.67    1.733   1.692   1.644   1.570   1.490   1.437   1.381   1.357   1.438   1.561   1.487   1.410   1.373   1.295   1.267   1.320   1.248   1.241   1.349   1.380   1.405   1.418   1.456   1.436   1.373   1.308   1.230   1.300   1.336   1.313   1.286
   152.83    1.705   1.737   1.642   1.563   1.545   1.437   1.361   1.378   1.366   1.553   1.449   1.387   1.352   1.410   1.389   1.352   1.247   1.309   1.333   1.358   1.437   1.452   1.394   1.451   1.429   1.367   1.320   1.296   1.282   1.349   1.300
   148.00    1.852   1.767   1.680   1.603   1.520   1.487   1.448   1.369   1.373   1.479   1.453   1.334   1.339   1.383   1.468   1.483   1.375   1.346   1.367   1.359   1.373   1.427   1.495   1.543   1.460   1.379   1.361   1.311   1.368   1.291   1.289
   143.17    1.835   1.705   1.669   1.552   1.531   1.526   1.411   1.399   1.427   1.419   1.367   1.344   1.389   1.396   1.473   1.433   1.390   1.380   1.466   1.417   1.445   1.390   1.386   1.401   1.360   1.320   1.312   1.389   1.349   1.314   1.311
   138.33    1.735   1.799   1.712   1.712   1.568   1.579   1.480   1.490   1.520   1.523   1.406   1.348   1.395   1.397   1.467   1.490   1.433   1.406   1.453   1.314   1.302   1.353   1.334   1.321   1.361   1.332   1.317   1.342   1.263   1.216   1.180
   133.50    1.719   1.757   1.700   1.603   1.608   1.476   1.440   1.451   1.515   1.520   1.403   1.308   1.266   1.263   1.445   1.435   1.450   1.460   1.485   1.458   1.382   1.352   1.271   1.307   1.288   1.332   1.197   1.284   1.252   1.272   1.320
   128.67    1.842   1.649   1.670   1.603   1.521   1.458   1.335   1.399   1.482   1.523   1.505   1.332   1.334   1.350   1.440   1.437   1.415   1.350   1.381   1.416   1.216   1.221   1.300   1.254   1.252   1.263   1.290   1.265   1.365   1.308   1.332
   123.83    1.644   1.570   1.613   1.535   1.443   1.286   1.371   1.456   1.487   1.441   1.514   1.488   1.402   1.388   1.283   1.349   1.368   1.402   1.286   1.260   1.267   1.215   1.273   1.292   1.344   1.326   1.302   1.227   1.317   1.317   1.289
   119.00    1.545   1.471   1.526   1.601   1.505   1.397   1.395   1.427   1.487   1.433   1.496   1.531   1.426   1.310   1.270   1.256   1.287   1.356   1.251   1.220   1.241   1.288   1.291   1.246   1.263   1.374   1.246   1.395   1.338   1.362   1.325
   114.17    1.414   1.462   1.545   1.595   1.564   1.400   1.442   1.476   1.473   1.524   1.510   1.461   1.449   1.389   1.346   1.261   1.255   1.303   1.308   1.250   1.300   1.236   1.285   1.309   1.292   1.354   1.392   1.419   1.456   1.415   1.390
   109.33    1.506   1.574   1.473   1.551   1.481   1.472   1.605   1.480   1.530   1.526   1.562   1.588   1.502   1.409   1.403   1.305   1.218   1.259   1.265   1.345   1.285   1.248   1.262   1.207   1.285   1.386   1.392   1.395   1.446   1.428   1.434
   104.50    1.584   1.523   1.542   1.445   1.519   1.563   1.577   1.580   1.468   1.499   1.637   1.623   1.554   1.430   1.367   1.324   1.236   1.284   1.327   1.349   1.361   1.284   1.292   1.293   1.278   1.369   1.351   1.348   1.520   1.553   1.559
    99.67    1.599   1.515   1.595   1.502   1.587   1.583   1.575   1.563   1.507   1.595   1.673   1.598   1.547   1.515   1.444   1.401   1.284   1.197   1.260   1.406   1.370   1.376   1.304   1.222   1.338   1.411   1.458   1.477   1.632   1.555   1.632
    94.83    1.542   1.520   1.512   1.485   1.458   1.582   1.476   1.510   1.549   1.576   1.704   1.695   1.645   1.473   1.472   1.423   1.330   1.313   1.254   1.379   1.334   1.255   1.264   1.227   1.308   1.511   1.597   1.542   1.627   1.655   1.618
    90.00    1.402   1.475   1.413   1.510   1.525   1.541   1.443   1.536   1.571   1.585   1.647   1.611   1.581   1.581   1.621   1.442   1.351   1.308   1.324   1.381   1.281   1.207   1.234   1.286   1.284   1.427   1.564   1.591   1.617   1.547   1.600
    85.17    1.456   1.396   1.579   1.553   1.575   1.529   1.553   1.549   1.587   1.645   1.586   1.590   1.559   1.672   1.581   1.561   1.498   1.382   1.295   1.283   1.349   1.232   1.272   1.233   1.257   1.441   1.591   1.623   1.673   1.532   1.585
    80.33    1.423   1.485   1.512   1.566   1.564   1.484   1.465   1.457   1.583   1.504   1.434   1.498   1.543   1.557   1.570   1.582   1.492   1.469   1.320   1.324   1.329   1.267   1.316   1.263   1.294   1.503   1.607   1.649   1.511   1.545   1.530
    75.50    1.538   1.539   1.540   1.527   1.426   1.441   1.413   1.437   1.480   1.477   1.402   1.367   1.447   1.500   1.564   1.576   1.450   1.522   1.304   1.260   1.338   1.295   1.274   1.216   1.341   1.387   1.459   1.538   1.478   1.533   1.478
    70.67    1.451   1.464   1.459   1.483   1.471   1.367   1.485   1.482   1.400   1.387   1.464   1.356   1.485   1.525   1.499   1.490   1.495   1.408   1.350   1.351   1.333   1.285   1.253   1.294   1.354   1.386   1.449   1.454   1.423   1.494   1.487
    65.83    1.515   1.412   1.402   1.453   1.481   1.474   1.520   1.485   1.438   1.362   1.349   1.375   1.434   1.436   1.495   1.438   1.482   1.442   1.391   1.390   1.348   1.276   1.314   1.449   1.411   1.343   1.469   1.451   1.467   1.454   1.507
    61.00    1.450   1.373   1.384   1.501   1.424   1.482   1.574   1.544   1.449   1.282   1.293   1.410   1.433   1.520   1.519   1.480   1.478   1.437   1.421   1.331   1.396   1.344   1.333   1.398   1.426   1.433   1.446   1.399   1.416   1.413   1.499
    56.17    1.418   1.409   1.437   1.406   1.501   1.422   1.572   1.576   1.517   1.479   1.490   1.565   1.542   1.559   1.557   1.476   1.496   1.408   1.461   1.434   1.435   1.456   1.395   1.352   1.382   1.411   1.503   1.400   1.382   1.402   1.437
    51.33    1.437   1.507   1.403   1.506   1.503   1.510   1.554   1.561   1.554   1.506   1.503   1.576   1.552   1.612   1.491   1.424   1.425   1.493   1.389   1.394   1.370   1.425   1.358   1.311   1.189   1.366   1.491   1.489   1.470   1.461   1.360
    46.50    1.501   1.583   1.559   1.498   1.550   1.550   1.571   1.615   1.635   1.603   1.553   1.531   1.530   1.517   1.417   1.416   1.480   1.492   1.467   1.429   1.317   1.300   1.310   1.268   1.303   1.306   1.434   1.541   1.568   1.350   1.334
    41.67    1.629   1.607   1.676   1.575   1.667   1.620   1.628   1.747   1.729   1.604   1.458   1.456   1.378   1.328   1.429   1.423   1.425   1.427   1.501   1.430   1.290   1.275   1.313   1.364   1.360   1.388   1.430   1.519   1.549   1.416   1.343
    36.83    1.632   1.622   1.705   1.710   1.586   1.660   1.695   1.734   1.759   1.575   1.525   1.385   1.371   1.375   1.346   1.387   1.297   1.380   1.492   1.263   1.283   1.311   1.344   1.414   1.491   1.477   1.488   1.487   1.402   1.404   1.412
    32.00    1.495   1.652   1.784   1.730   1.684   1.748   1.773   1.776   1.712   1.582   1.416   1.331   1.473   1.435   1.346   1.360   1.352   1.398   1.491   1.384   1.276   1.328   1.468   1.468   1.459   1.532   1.544   1.463   1.449   1.464   1.489
    27.17    1.570   1.693   1.829   1.779   1.654   1.641   1.561   1.656   1.547   1.438   1.445   1.378   1.369   1.393   1.392   1.446   1.499   1.445   1.413   1.437   1.457   1.333   1.450   1.458   1.480   1.476   1.447   1.474   1.563   1.532   1.442
    22.33    1.584   1.746   1.784   1.758   1.609   1.616   1.670   1.594   1.502   1.524   1.476   1.457   1.381   1.403   1.378   1.415   1.417   1.452   1.393   1.497   1.423   1.436   1.460   1.389   1.494   1.424   1.427   1.496   1.645   1.612   1.536
    17.50    1.519   1.614   1.674   1.590   1.626   1.704   1.613   1.536   1.568   1.514   1.506   1.388   1.429   1.370   1.336   1.291   1.349   1.401   1.408   1.355   1.402   1.398   1.407   1.313   1.396   1.394   1.447   1.553   1.563   1.616   1.546

   Height   Standard deviation at grid points for the v component:
   162.50    1.263   1.263   1.263   1.263   1.263   1.263   1.263   1.263   1.263   1.263   1.263   1.263   1.263   1.263   1.263   1.263   1.263   1.263   1.263   1.263   1.263   1.263   1.263   1.263   1.263   1.263   1.263   1.263   1.263   1.263   1.263
   157.67    1.263   1.263   1.263   1.263   1.263   1.263   1.263   1.263   1.263   1.263   1.263   1.263   1.263   1.263   1.263   1.263   1.263   1.263   1.263   1.263   1.263   1.263   1.263   1.263   1.263   1.263   1.263   1.263   1.263   1.263   1.263
   152.83    1.263   1.263   1.263   1.263   1.263   1.263   1.263   1.263   1.263   1.263   1.263   1.263   1.263   1.263   1.263   1.263   1.263   1.263   1.263   1.263   1.263   1.263   1.263   1.263   1.263   1.263   1.263   1.263   1.263   1.263   1.263
   148.00    1.263   1.263   1.263   1.263   1.263   1.263   1.263   1.263   1.263   1.263   1.263   1.263   1.263   1.263   1.263   1.263   1.263   1.263   1.263   1.263   1.263   1.263   1.263   1.263   1.263   1.263   1.263   1.263   1.263   1.263   1.263
   143.17    1.263   1.263   1.263   1.263   1.263   1.263   1.263   1.263   1.263   1.263   1.263   1.263   1.263   1.263   1.263   1.263   1.263   1.263   1.263   1.263   1.263   1.263   1.263   1.263   1.263   1.263   1.263   1.263   1.263   1.263   1.263
   138.33    1.263   1.263   1.263   1.263   1.263   1.263   1.263   1.263   1.263   1.263   1.263   1.263   1.263   1.263   1.263   1.263   1.263   1.263   1.263   1.263   1.263   1.263   1.263   1.263   1.263   1.263   1.263   1.263   1.263   1.263   1.263
   133.50    1.263   1.263   1.263   1.263   1.263   1.263   1.263   1.263   1.263   1.263   1.263   1.263   1.263   1.263   1.263   1.263   1.263   1.263   1.263   1.263   1.263   1.263   1.263   1.263   1.263   1.263   1.263   1.263   1.263   1.263   1.263
   128.67    1.263   1.263   1.263   1.263   1.263   1.263   1.263   1.263   1.263   1.263   1.263   1.263   1.263   1.263   1.263   1.263   1.263   1.263   1.263   1.263   1.263   1.263   1.263   1.263   1.263   1.263   1.263   1.263   1.263   1.263   1.263
   123.83    1.263   1.263   1.263   1.263   1.263   1.263   1.263   1.263   1.263   1.263   1.263   1.263   1.263   1.263   1.263   1.263   1.263   1.263   1.263   1.263   1.263   1.263   1.263   1.263   1.263   1.263   1.263   1.263   1.263   1.263   1.263
   119.00    1.263   1.263   1.263   1.263   1.263   1.263   1.263   1.263   1.263   1.263   1.263   1.263   1.263   1.263   1.263   1.263   1.263   1.263   1.263   1.263   1.263   1.263   1.263   1.263   1.263   1.263   1.263   1.263   1.263   1.263   1.263
   114.17    1.263   1.263   1.263   1.263   1.263   1.263   1.263   1.263   1.263   1.263   1.263   1.263   1.263   1.263   1.263   1.263   1.263   1.263   1.263   1.263   1.263   1.263   1.263   1.263   1.263   1.263   1.263   1.263   1.263   1.263   1.263
   109.33    1.263   1.263   1.263   1.263   1.263   1.263   1.263   1.263   1.263   1.263   1.263   1.263   1.263   1.263   1.263   1.263   1.263   1.263   1.263   1.263   1.263   1.263   1.263   1.263   1.263   1.263   1.263   1.263   1.263   1.263   1.263
   104.50    1.263   1.263   1.263   1.263   1.263   1.263   1.263   1.263   1.263   1.263   1.263   1.263   1.263   1.263   1.263   1.263   1.263   1.263   1.263   1.263   1.263   1.263   1.263   1.263   1.263   1.263   1.263   1.263   1.263   1.263   1.263
    99.67    1.263   1.263   1.263   1.263   1.263   1.263   1.263   1.263   1.263   1.263   1.263   1.263   1.263   1.263   1.263   1.263   1.263   1.263   1.263   1.263   1.263   1.263   1.263   1.263   1.263   1.263   1.263   1.263   1.263   1.263   1.263
    94.83    1.263   1.263   1.263   1.263   1.263   1.263   1.263   1.263   1.263   1.263   1.263   1.263   1.263   1.263   1.263   1.263   1.263   1.263   1.263   1.263   1.263   1.263   1.263   1.263   1.263   1.263   1.263   1.263   1.263   1.263   1.263
    90.00    1.263   1.263   1.263   1.263   1.263   1.263   1.263   1.263   1.263   1.263   1.263   1.263   1.263   1.263   1.263   1.263   1.263   1.263   1.263   1.263   1.263   1.263   1.263   1.263   1.263   1.263   1.263   1.263   1.263   1.263   1.263
    85.17    1.263   1.263   1.263   1.263   1.263   1.263   1.263   1.263   1.263   1.263   1.263   1.263   1.263   1.263   1.263   1.263   1.263   1.263   1.263   1.263   1.263   1.263   1.263   1.263   1.263   1.263   1.263   1.263   1.263   1.263   1.263
    80.33    1.263   1.263   1.263   1.263   1.263   1.263   1.263   1.263   1.263   1.263   1.263   1.263   1.263   1.263   1.263   1.263   1.263   1.263   1.263   1.263   1.263   1.263   1.263   1.263   1.263   1.263   1.263   1.263   1.263   1.263   1.263
    75.50    1.263   1.263   1.263   1.263   1.263   1.263   1.263   1.263   1.263   1.263   1.263   1.263   1.263   1.263   1.263   1.263   1.263   1.263   1.263   1.263   1.263   1.263   1.263   1.263   1.263   1.263   1.263   1.263   1.263   1.263   1.263
    70.67    1.263   1.263   1.263   1.263   1.263   1.263   1.263   1.263   1.263   1.263   1.263   1.263   1.263   1.263   1.263   1.263   1.263   1.263   1.263   1.263   1.263   1.263   1.263   1.263   1.263   1.263   1.263   1.263   1.263   1.263   1.263
    65.83    1.263   1.263   1.263   1.263   1.263   1.263   1.263   1.263   1.263   1.263   1.263   1.263   1.263   1.263   1.263   1.263   1.263   1.263   1.263   1.263   1.263   1.263   1.263   1.263   1.263   1.263   1.263   1.263   1.263   1.263   1.263
    61.00    1.263   1.263   1.263   1.263   1.263   1.263   1.263   1.263   1.263   1.263   1.263   1.263   1.263   1.263   1.263   1.263   1.263   1.263   1.263   1.263   1.263   1.263   1.263   1.263   1.263   1.263   1.263   1.263   1.263   1.263   1.263
    56.17    1.263   1.263   1.263   1.263   1.263   1.263   1.263   1.263   1.263   1.263   1.263   1.263   1.263   1.263   1.263   1.263   1.263   1.263   1.263   1.263   1.263   1.263   1.263   1.263   1.263   1.263   1.263   1.263   1.263   1.263   1.263
    51.33    1.263   1.263   1.263   1.263   1.263   1.263   1.263   1.263   1.263   1.263   1.263   1.263   1.263   1.263   1.263   1.263   1.263   1.263   1.263   1.263   1.263   1.263   1.263   1.263   1.263   1.263   1.263   1.263   1.263   1.263   1.263
    46.50    1.263   1.263   1.263   1.263   1.263   1.263   1.263   1.263   1.263   1.263   1.263   1.263   1.263   1.263   1.263   1.263   1.263   1.263   1.263   1.263   1.263   1.263   1.263   1.263   1.263   1.263   1.263   1.263   1.263   1.263   1.263
    41.67    1.263   1.263   1.263   1.263   1.263   1.263   1.263   1.263   1.263   1.263   1.263   1.263   1.263   1.263   1.263   1.263   1.263   1.263   1.263   1.263   1.263   1.263   1.263   1.263   1.263   1.263   1.263   1.263   1.263   1.263   1.263
    36.83    1.263   1.263   1.263   1.263   1.263   1.263   1.263   1.263   1.263   1.263   1.263   1.263   1.263   1.263   1.263   1.263   1.263   1.263   1.263   1.263   1.263   1.263   1.263   1.263   1.263   1.263   1.263   1.263   1.263   1.263   1.263
    32.00    1.263   1.263   1.263   1.263   1.263   1.263   1.263   1.263   1.263   1.263   1.263   1.263   1.263   1.263   1.263   1.263   1.263   1.263   1.263   1.263   1.263   1.263   1.263   1.263   1.263   1.263   1.263   1.263   1.263   1.263   1.263
    27.17    1.263   1.263   1.263   1.263   1.263   1.263   1.263   1.263   1.263   1.263   1.263   1.263   1.263   1.263   1.263   1.263   1.263   1.263   1.263   1.263   1.263   1.263   1.263   1.263   1.263   1.263   1.263   1.263   1.263   1.263   1.263
    22.33    1.263   1.263   1.263   1.263   1.263   1.263   1.263   1.263   1.263   1.263   1.263   1.263   1.263   1.263   1.263   1.263   1.263   1.263   1.263   1.263   1.263   1.263   1.263   1.263   1.263   1.263   1.263   1.263   1.263   1.263   1.263
    17.50    1.263   1.263   1.263   1.263   1.263   1.263   1.263   1.263   1.263   1.263   1.263   1.263   1.263   1.263   1.263   1.263   1.263   1.263   1.263   1.263   1.263   1.263   1.263   1.263   1.263   1.263   1.263   1.263   1.263   1.263   1.263

   Height   Standard deviation at grid points for the w component:
   162.50    0.796   0.796   0.796   0.796   0.796   0.796   0.796   0.796   0.796   0.796   0.796   0.796   0.796   0.796   0.796   0.796   0.796   0.796   0.796   0.796   0.796   0.796   0.796   0.796   0.796   0.796   0.796   0.796   0.796   0.796   0.796
   157.67    0.796   0.796   0.796   0.796   0.796   0.796   0.796   0.796   0.796   0.796   0.796   0.796   0.796   0.796   0.796   0.796   0.796   0.796   0.796   0.796   0.796   0.796   0.796   0.796   0.796   0.796   0.796   0.796   0.796   0.796   0.796
   152.83    0.796   0.796   0.796   0.796   0.796   0.796   0.796   0.796   0.796   0.796   0.796   0.796   0.796   0.796   0.796   0.796   0.796   0.796   0.796   0.796   0.796   0.796   0.796   0.796   0.796   0.796   0.796   0.796   0.796   0.796   0.796
   148.00    0.796   0.796   0.796   0.796   0.796   0.796   0.796   0.796   0.796   0.796   0.796   0.796   0.796   0.796   0.796   0.796   0.796   0.796   0.796   0.796   0.796   0.796   0.796   0.796   0.796   0.796   0.796   0.796   0.796   0.796   0.796
   143.17    0.796   0.796   0.796   0.796   0.796   0.796   0.796   0.796   0.796   0.796   0.796   0.796   0.796   0.796   0.796   0.796   0.796   0.796   0.796   0.796   0.796   0.796   0.796   0.796   0.796   0.796   0.796   0.796   0.796   0.796   0.796
   138.33    0.796   0.796   0.796   0.796   0.796   0.796   0.796   0.796   0.796   0.796   0.796   0.796   0.796   0.796   0.796   0.796   0.796   0.796   0.796   0.796   0.796   0.796   0.796   0.796   0.796   0.796   0.796   0.796   0.796   0.796   0.796
   133.50    0.796   0.796   0.796   0.796   0.796   0.796   0.796   0.796   0.796   0.796   0.796   0.796   0.796   0.796   0.796   0.796   0.796   0.796   0.796   0.796   0.796   0.796   0.796   0.796   0.796   0.796   0.796   0.796   0.796   0.796   0.796
   128.67    0.796   0.796   0.796   0.796   0.796   0.796   0.796   0.796   0.796   0.796   0.796   0.796   0.796   0.796   0.796   0.796   0.796   0.796   0.796   0.796   0.796   0.796   0.796   0.796   0.796   0.796   0.796   0.796   0.796   0.796   0.796
   123.83    0.796   0.796   0.796   0.796   0.796   0.796   0.796   0.796   0.796   0.796   0.796   0.796   0.796   0.796   0.796   0.796   0.796   0.796   0.796   0.796   0.796   0.796   0.796   0.796   0.796   0.796   0.796   0.796   0.796   0.796   0.796
   119.00    0.796   0.796   0.796   0.796   0.796   0.796   0.796   0.796   0.796   0.796   0.796   0.796   0.796   0.796   0.796   0.796   0.796   0.796   0.796   0.796   0.796   0.796   0.796   0.796   0.796   0.796   0.796   0.796   0.796   0.796   0.796
   114.17    0.796   0.796   0.796   0.796   0.796   0.796   0.796   0.796   0.796   0.796   0.796   0.796   0.796   0.796   0.796   0.796   0.796   0.796   0.796   0.796   0.796   0.796   0.796   0.796   0.796   0.796   0.796   0.796   0.796   0.796   0.796
   109.33    0.796   0.796   0.796   0.796   0.796   0.796   0.796   0.796   0.796   0.796   0.796   0.796   0.796   0.796   0.796   0.796   0.796   0.796   0.796   0.796   0.796   0.796   0.796   0.796   0.796   0.796   0.796   0.796   0.796   0.796   0.796
   104.50    0.796   0.796   0.796   0.796   0.796   0.796   0.796   0.796   0.796   0.796   0.796   0.796   0.796   0.796   0.796   0.796   0.796   0.796   0.796   0.796   0.796   0.796   0.796   0.796   0.796   0.796   0.796   0.796   0.796   0.796   0.796
    99.67    0.796   0.796   0.796   0.796   0.796   0.796   0.796   0.796   0.796   0.796   0.796   0.796   0.796   0.796   0.796   0.796   0.796   0.796   0.796   0.796   0.796   0.796   0.796   0.796   0.796   0.796   0.796   0.796   0.796   0.796   0.796
    94.83    0.796   0.796   0.796   0.796   0.796   0.796   0.796   0.796   0.796   0.796   0.796   0.796   0.796   0.796   0.796   0.796   0.796   0.796   0.796   0.796   0.796   0.796   0.796   0.796   0.796   0.796   0.796   0.796   0.796   0.796   0.796
    90.00    0.796   0.796   0.796   0.796   0.796   0.796   0.796   0.796   0.796   0.796   0.796   0.796   0.796   0.796   0.796   0.796   0.796   0.796   0.796   0.796   0.796   0.796   0.796   0.796   0.796   0.796   0.796   0.796   0.796   0.796   0.796
    85.17    0.796   0.796   0.796   0.796   0.796   0.796   0.796   0.796   0.796   0.796   0.796   0.796   0.796   0.796   0.796   0.796   0.796   0.796   0.796   0.796   0.796   0.796   0.796   0.796   0.796   0.796   0.796   0.796   0.796   0.796   0.796
    80.33    0.796   0.796   0.796   0.796   0.796   0.796   0.796   0.796   0.796   0.796   0.796   0.796   0.796   0.796   0.796   0.796   0.796   0.796   0.796   0.796   0.796   0.796   0.796   0.796   0.796   0.796   0.796   0.796   0.796   0.796   0.796
    75.50    0.796   0.796   0.796   0.796   0.796   0.796   0.796   0.796   0.796   0.796   0.796   0.796   0.796   0.796   0.796   0.796   0.796   0.796   0.796   0.796   0.796   0.796   0.796   0.796   0.796   0.796   0.796   0.796   0.796   0.796   0.796
    70.67    0.796   0.796   0.796   0.796   0.796   0.796   0.796   0.796   0.796   0.796   0.796   0.796   0.796   0.796   0.796   0.796   0.796   0.796   0.796   0.796   0.796   0.796   0.796   0.796   0.796   0.796   0.796   0.796   0.796   0.796   0.796
    65.83    0.796   0.796   0.796   0.796   0.796   0.796   0.796   0.796   0.796   0.796   0.796   0.796   0.796   0.796   0.796   0.796   0.796   0.796   0.796   0.796   0.796   0.796   0.796   0.796   0.796   0.796   0.796   0.796   0.796   0.796   0.796
    61.00    0.796   0.796   0.796   0.796   0.796   0.796   0.796   0.796   0.796   0.796   0.796   0.796   0.796   0.796   0.796   0.796   0.796   0.796   0.796   0.796   0.796   0.796   0.796   0.796   0.796   0.796   0.796   0.796   0.796   0.796   0.796
    56.17    0.796   0.796   0.796   0.796   0.796   0.796   0.796   0.796   0.796   0.796   0.796   0.796   0.796   0.796   0.796   0.796   0.796   0.796   0.796   0.796   0.796   0.796   0.796   0.796   0.796   0.796   0.796   0.796   0.796   0.796   0.796
    51.33    0.796   0.796   0.796   0.796   0.796   0.796   0.796   0.796   0.796   0.796   0.796   0.796   0.796   0.796   0.796   0.796   0.796   0.796   0.796   0.796   0.796   0.796   0.796   0.796   0.796   0.796   0.796   0.796   0.796   0.796   0.796
    46.50    0.796   0.796   0.796   0.796   0.796   0.796   0.796   0.796   0.796   0.796   0.796   0.796   0.796   0.796   0.796   0.796   0.796   0.796   0.796   0.796   0.796   0.796   0.796   0.796   0.796   0.796   0.796   0.796   0.796   0.796   0.796
    41.67    0.796   0.796   0.796   0.796   0.796   0.796   0.796   0.796   0.796   0.796   0.796   0.796   0.796   0.796   0.796   0.796   0.796   0.796   0.796   0.796   0.796   0.796   0.796   0.796   0.796   0.796   0.796   0.796   0.796   0.796   0.796
    36.83    0.796   0.796   0.796   0.796   0.796   0.796   0.796   0.796   0.796   0.796   0.796   0.796   0.796   0.796   0.796   0.796   0.796   0.796   0.796   0.796   0.796   0.796   0.796   0.796   0.796   0.796   0.796   0.796   0.796   0.796   0.796
    32.00    0.796   0.796   0.796   0.796   0.796   0.796   0.796   0.796   0.796   0.796   0.796   0.796   0.796   0.796   0.796   0.796   0.796   0.796   0.796   0.796   0.796   0.796   0.796   0.796   0.796   0.796   0.796   0.796   0.796   0.796   0.796
    27.17    0.796   0.796   0.796   0.796   0.796   0.796   0.796   0.796   0.796   0.796   0.796   0.796   0.796   0.796   0.796   0.796   0.796   0.796   0.796   0.796   0.796   0.796   0.796   0.796   0.796   0.796   0.796   0.796   0.796   0.796   0.796
    22.33    0.796   0.796   0.796   0.796   0.796   0.796   0.796   0.796   0.796   0.796   0.796   0.796   0.796   0.796   0.796   0.796   0.796   0.796   0.796   0.796   0.796   0.796   0.796   0.796   0.796   0.796   0.796   0.796   0.796   0.796   0.796
    17.50    0.796   0.796   0.796   0.796   0.796   0.796   0.796   0.796   0.796   0.796   0.796   0.796   0.796   0.796   0.796   0.796   0.796   0.796   0.796   0.796   0.796   0.796   0.796   0.796   0.796   0.796   0.796   0.796   0.796   0.796   0.796

   Mean standard deviation across all grid points:
      u component:    1.446 m/s
      v component:    1.263 m/s
      w component:    0.796 m/s


U-component (X) statistics from the interpolated hub point:

   Mean =   8.0000 m/s
   TI   =  18.0307 %


Processing complete.  177.33 CPU seconds used.
