
This summary file was generated by TurbSim (v2.00.07a-bjj, 14-Jun-2016) on 15-Feb-2019 at 10:28:12.


Runtime Options:

**********  Random seed #1
    RANLUX  Type of random number generator
         F  Output binary HH turbulence parameters?
         F  Output formatted turbulence parameters?
         F  Output AeroDyn HH files?
         T  Output AeroDyn FF files?
         F  Output BLADED FF files?
         T  Output tower data?
         F  Output formatted FF files?
         F  Output coherent turbulence time step file?
         T  Clockwise rotation when looking downwind?
 0 -  NONE  IEC turbulence models scaled to exact specified standard deviation


Turbine/Model Specifications:

        31  Vertical grid-point matrix dimension
        31  Horizontal grid-point matrix dimension
     0.050  Time step [seconds]
   630.000  Analysis time [seconds]
   630.000  Usable output time [seconds]
    90.000  Hub height [m]
   145.000  Grid height [m]
   145.000  Grid width [m]
     0.000  Vertical flow angle [degrees]
     0.000  Horizontal flow angle [degrees]


Meteorological Boundary Conditions:

    IECKAI  IEC Kaimal spectral model
         1  IEC standard: IEC 61400-1 Ed. 3: 2005
         B  IEC turbulence characteristic
       NTM  IEC Normal Turbulence Model
       N/A  IEC Extreme Turbulence Model (ETM) "c" parameter [m/s]
       PL   Wind profile type
    90.000  Reference height [m]
     8.000  Reference wind speed [m/s]
       N/A  Jet height [m]
     0.200  Power law exponent
     0.030  Surface roughness length [m]


Non-IEC Meteorological Boundary Conditions:

       N/A  Site latitude [degrees]
       N/A  Gradient Richardson number
       N/A  Friction or shear velocity [m/s]
       N/A  Mixing layer depth [m]
       N/A  Mean hub u'w' Reynolds stress
       N/A  Mean hub u'v' Reynolds stress
       N/A  Mean hub v'w' Reynolds stress


Spatial Coherence Models:

   GENERAL  u-component coherence model
   GENERAL  v-component coherence model
   GENERAL  w-component coherence model
(   12.000, 0.353E-03)  u-component coherence parameters
(*********,  0.00    )  v-component coherence parameters
(*********,  0.00    )  w-component coherence parameters
     0.000  Coherence exponent


You have requested that the following file(s) be generated:

   08_b.bts (AeroDyn/TurbSim full-field wind file)


Turbulence Simulation Scaling Parameter Summary:

   Turbulence model used                            =  IEC Kaimal
   Turbulence characteristic                        =  B
   IEC turbulence type                              =  Normal Turbulence Model
   IEC standard                                     =  IEC 61400-1 Ed. 3: 2005
   Mean wind speed at hub height                    =    8.000 m/s
   Expected value of turbulence intensity at 15 m/s =   14.000%
   Characteristic value of standard deviation       =    1.624 m/s
   Turbulence scale                                 =   42.000 m
   u-component integral scale                       =  340.200 m
   Coherency scale                                  =  340.200 m
   Characteristic value of hub turbulence intensity =   20.300%
   Gradient Richardson number                       =    0.000

   Wind profile type                                =  Power law
   Power law exponent                               =    0.200
   Mean shear across rotor disk                     =    0.022 (m/s)/m
   Assumed rotor diameter                           =  145.000 m
   Surface roughness length                         =    0.030 m

   Nyquist frequency of turbulent wind field        =   10.000 Hz

   Number of time steps in the FFT                  =    12600
   Number of time steps output                      =    12600
   Number of points simulated                       =      964


Mean Flow Angles:

   Vertical   =   0.0 degrees
   Horizontal =   0.0 degrees

Mean Wind Speed Profile:

   Height    Wind Speed   Horizontal Angle  Vertical Angle  U-comp (X)   V-comp (Y)   W-comp (Z)
     (m)        (m/s)         (degrees)       (degrees)       (m/s)        (m/s)        (m/s)   
   ------    ----------   ----------------  --------------  ----------   ----------   ----------
    162.5        9.00            0.00            0.00          9.00         0.00         0.00
    157.7        8.95            0.00            0.00          8.95         0.00         0.00
    152.8        8.89            0.00            0.00          8.89         0.00         0.00
    148.0        8.84            0.00            0.00          8.84         0.00         0.00
    143.2        8.78            0.00            0.00          8.78         0.00         0.00
    138.3        8.72            0.00            0.00          8.72         0.00         0.00
    133.5        8.66            0.00            0.00          8.66         0.00         0.00
    128.7        8.59            0.00            0.00          8.59         0.00         0.00
    123.8        8.53            0.00            0.00          8.53         0.00         0.00
    119.0        8.46            0.00            0.00          8.46         0.00         0.00
    114.2        8.39            0.00            0.00          8.39         0.00         0.00
    109.3        8.32            0.00            0.00          8.32         0.00         0.00
    104.5        8.24            0.00            0.00          8.24         0.00         0.00
     99.7        8.16            0.00            0.00          8.16         0.00         0.00
     94.8        8.08            0.00            0.00          8.08         0.00         0.00
     90.0        8.00            0.00            0.00          8.00         0.00         0.00
     85.2        7.91            0.00            0.00          7.91         0.00         0.00
     80.3        7.82            0.00            0.00          7.82         0.00         0.00
     75.5        7.72            0.00            0.00          7.72         0.00         0.00
     70.7        7.62            0.00            0.00          7.62         0.00         0.00
     65.8        7.52            0.00            0.00          7.52         0.00         0.00
     61.0        7.40            0.00            0.00          7.40         0.00         0.00
     56.2        7.28            0.00            0.00          7.28         0.00         0.00
     51.3        7.15            0.00            0.00          7.15         0.00         0.00
     46.5        7.01            0.00            0.00          7.01         0.00         0.00
     41.7        6.86            0.00            0.00          6.86         0.00         0.00
     36.8        6.69            0.00            0.00          6.69         0.00         0.00
     32.0        6.51            0.00            0.00          6.51         0.00         0.00
     27.2        6.30            0.00            0.00          6.30         0.00         0.00
     22.3        6.05            0.00            0.00          6.05         0.00         0.00
     17.5        5.77            0.00            0.00          5.77         0.00         0.00
     12.7        5.40            0.00            0.00          5.40         0.00         0.00
      7.8        4.91            0.00            0.00          4.91         0.00         0.00
      3.0        4.05            0.00            0.00          4.05         0.00         0.00


Harvested Random Seeds after Generation of the Random Numbers:

    169290450 K 1
            0 K 2


Hub-Height Simulated Turbulence Statistical Summary:

   Type of Wind        Min (m/s)   Mean (m/s)    Max (m/s)  Sigma (m/s)       TI (%)
   ----------------    ---------   ----------    ---------  -----------       ------
   Longitudinal (u)         2.95         8.00        12.47        1.303       16.294
   Lateral (v)             -4.08        -0.00         4.09        1.263       15.792
   Vertical (w)            -2.60         0.00         3.04        0.796        9.949
   U component              2.95         8.00        12.47        1.303       16.294
   V component             -4.08        -0.00         4.09        1.263       15.792
   W component             -2.60         0.00         3.04        0.796        9.949
   Horizontal (U&V)         3.25         8.10        12.83        1.288       15.898
   Total                    3.37         8.14        12.83        1.277       15.682

                       Min Reynolds     Mean Reynolds    Max Reynolds    Correlation
   Product             Stress (m/s)^2   Stress (m/s)^2   Stress (m/s)^2  Coefficient
   ----------------    --------------   --------------   --------------  -----------
   u'w'                     -6.165             0.078             7.038         0.075
   u'v'                    -12.097            -0.015            13.633        -0.009
   v'w'                     -5.726            -0.012             6.437        -0.011


   Friction Velocity (Ustar)  =      0.279 m/s
   Maximum Instantaneous TKE  =     14.548 (m/s)^2
   Maximum Instantaneous CTKE =      6.995 (m/s)^2


Grid Point Variance Summary:

   Y-coord  -72.50  -67.67  -62.83  -58.00  -53.17  -48.33  -43.50  -38.67  -33.83  -29.00  -24.17  -19.33  -14.50   -9.67   -4.83    0.00    4.83    9.67   14.50   19.33   24.17   29.00   33.83   38.67   43.50   48.33   53.17   58.00   62.83   67.67   72.50

   Height   Standard deviation at grid points for the u component:
   162.50    1.308   1.243   1.272   1.292   1.284   1.340   1.368   1.391   1.431   1.443   1.407   1.375   1.352   1.417   1.384   1.298   1.315   1.341   1.481   1.396   1.484   1.370   1.415   1.504   1.418   1.390   1.488   1.492   1.439   1.561   1.500
   157.67    1.297   1.370   1.356   1.387   1.397   1.499   1.374   1.407   1.461   1.392   1.441   1.423   1.423   1.428   1.326   1.406   1.302   1.327   1.452   1.366   1.407   1.422   1.458   1.371   1.453   1.410   1.467   1.512   1.608   1.597   1.518
   152.83    1.294   1.326   1.437   1.330   1.364   1.443   1.331   1.364   1.296   1.376   1.335   1.388   1.398   1.388   1.355   1.320   1.382   1.354   1.397   1.366   1.427   1.331   1.376   1.421   1.406   1.385   1.462   1.453   1.594   1.528   1.553
   148.00    1.309   1.339   1.394   1.319   1.447   1.459   1.462   1.365   1.269   1.335   1.316   1.399   1.320   1.259   1.280   1.310   1.263   1.395   1.426   1.426   1.401   1.305   1.364   1.364   1.397   1.384   1.487   1.429   1.552   1.626   1.517
   143.17    1.313   1.384   1.327   1.316   1.299   1.355   1.334   1.409   1.364   1.313   1.334   1.378   1.308   1.245   1.324   1.275   1.287   1.326   1.384   1.441   1.333   1.404   1.366   1.302   1.356   1.418   1.414   1.502   1.537   1.513   1.551
   138.33    1.258   1.273   1.363   1.295   1.364   1.369   1.340   1.357   1.397   1.306   1.286   1.294   1.306   1.264   1.251   1.276   1.319   1.269   1.385   1.499   1.484   1.400   1.376   1.378   1.293   1.427   1.394   1.431   1.377   1.413   1.389
   133.50    1.238   1.281   1.296   1.258   1.275   1.386   1.284   1.340   1.306   1.208   1.231   1.195   1.218   1.228   1.263   1.266   1.219   1.284   1.395   1.590   1.553   1.424   1.270   1.270   1.255   1.289   1.330   1.385   1.334   1.471   1.447
   128.67    1.255   1.351   1.371   1.268   1.319   1.350   1.267   1.315   1.315   1.202   1.233   1.187   1.172   1.148   1.196   1.232   1.183   1.227   1.393   1.462   1.432   1.358   1.163   1.252   1.242   1.318   1.297   1.302   1.398   1.488   1.432
   123.83    1.244   1.359   1.366   1.298   1.374   1.277   1.222   1.240   1.325   1.283   1.230   1.138   1.141   1.091   1.239   1.264   1.181   1.214   1.296   1.371   1.308   1.206   1.140   1.180   1.201   1.297   1.296   1.323   1.468   1.541   1.410
   119.00    1.291   1.332   1.302   1.337   1.339   1.316   1.298   1.270   1.291   1.295   1.199   1.110   1.130   1.102   1.112   1.164   1.243   1.346   1.319   1.301   1.260   1.204   1.234   1.156   1.211   1.257   1.332   1.402   1.382   1.438   1.513
   114.17    1.407   1.447   1.318   1.348   1.336   1.298   1.171   1.252   1.334   1.280   1.228   1.081   1.194   1.243   1.272   1.191   1.253   1.294   1.341   1.252   1.184   1.191   1.237   1.255   1.255   1.383   1.357   1.335   1.363   1.348   1.414
   109.33    1.363   1.514   1.382   1.246   1.292   1.205   1.149   1.264   1.349   1.307   1.238   1.156   1.249   1.235   1.347   1.391   1.244   1.274   1.189   1.191   1.192   1.232   1.184   1.330   1.339   1.358   1.374   1.386   1.309   1.357   1.450
   104.50    1.471   1.473   1.315   1.280   1.291   1.271   1.303   1.281   1.309   1.257   1.269   1.230   1.279   1.331   1.378   1.381   1.291   1.226   1.136   1.197   1.191   1.234   1.257   1.350   1.273   1.407   1.407   1.376   1.312   1.402   1.400
    99.67    1.451   1.526   1.387   1.396   1.375   1.321   1.277   1.281   1.275   1.352   1.318   1.312   1.306   1.337   1.293   1.336   1.285   1.200   1.237   1.171   1.168   1.290   1.328   1.332   1.418   1.337   1.368   1.398   1.419   1.448   1.416
    94.83    1.581   1.536   1.448   1.385   1.425   1.389   1.402   1.315   1.444   1.414   1.342   1.394   1.443   1.366   1.261   1.270   1.217   1.269   1.303   1.143   1.256   1.298   1.367   1.301   1.341   1.351   1.343   1.331   1.434   1.451   1.482
    90.00    1.620   1.623   1.529   1.495   1.425   1.465   1.449   1.404   1.478   1.463   1.419   1.471   1.438   1.418   1.322   1.303   1.327   1.297   1.320   1.273   1.244   1.214   1.322   1.311   1.368   1.229   1.285   1.336   1.387   1.369   1.399
    85.17    1.672   1.601   1.585   1.594   1.645   1.560   1.465   1.457   1.417   1.530   1.481   1.482   1.473   1.373   1.384   1.332   1.245   1.307   1.285   1.293   1.316   1.287   1.250   1.362   1.363   1.341   1.305   1.377   1.489   1.551   1.450
    80.33    1.461   1.563   1.601   1.625   1.700   1.574   1.526   1.371   1.475   1.492   1.496   1.495   1.451   1.457   1.406   1.409   1.324   1.339   1.310   1.319   1.289   1.361   1.388   1.322   1.353   1.366   1.380   1.424   1.463   1.462   1.376
    75.50    1.542   1.572   1.559   1.608   1.643   1.709   1.618   1.397   1.538   1.543   1.534   1.528   1.431   1.502   1.467   1.427   1.367   1.341   1.367   1.294   1.272   1.293   1.263   1.282   1.299   1.282   1.298   1.331   1.396   1.414   1.330
    70.67    1.496   1.545   1.551   1.679   1.564   1.592   1.479   1.493   1.532   1.543   1.559   1.524   1.533   1.554   1.603   1.466   1.461   1.441   1.348   1.319   1.299   1.206   1.258   1.262   1.276   1.282   1.311   1.316   1.402   1.425   1.274
    65.83    1.507   1.532   1.615   1.623   1.641   1.639   1.550   1.444   1.460   1.615   1.582   1.631   1.604   1.513   1.509   1.469   1.385   1.376   1.294   1.264   1.339   1.326   1.262   1.267   1.322   1.240   1.306   1.395   1.366   1.378   1.442
    61.00    1.614   1.623   1.636   1.547   1.628   1.653   1.616   1.607   1.610   1.690   1.750   1.629   1.559   1.512   1.494   1.446   1.366   1.337   1.431   1.367   1.423   1.367   1.270   1.324   1.390   1.276   1.329   1.398   1.326   1.351   1.386
    56.17    1.534   1.602   1.633   1.673   1.697   1.767   1.730   1.784   1.651   1.808   1.786   1.748   1.563   1.601   1.495   1.469   1.516   1.380   1.378   1.391   1.318   1.345   1.317   1.327   1.263   1.345   1.442   1.324   1.231   1.364   1.428
    51.33    1.508   1.516   1.550   1.655   1.709   1.774   1.730   1.698   1.709   1.645   1.640   1.678   1.641   1.590   1.527   1.426   1.393   1.424   1.348   1.409   1.393   1.302   1.227   1.222   1.291   1.304   1.358   1.341   1.303   1.375   1.446
    46.50    1.583   1.706   1.731   1.651   1.639   1.682   1.693   1.718   1.650   1.739   1.612   1.595   1.636   1.602   1.425   1.349   1.324   1.360   1.375   1.383   1.357   1.333   1.298   1.313   1.223   1.195   1.246   1.315   1.333   1.353   1.431
    41.67    1.622   1.723   1.644   1.646   1.694   1.737   1.601   1.735   1.676   1.718   1.608   1.503   1.544   1.483   1.404   1.483   1.291   1.210   1.309   1.300   1.281   1.270   1.223   1.222   1.240   1.160   1.203   1.219   1.249   1.229   1.332
    36.83    1.636   1.740   1.750   1.656   1.783   1.632   1.659   1.752   1.698   1.654   1.688   1.483   1.466   1.457   1.439   1.389   1.319   1.298   1.257   1.229   1.252   1.183   1.228   1.274   1.152   1.130   1.136   1.214   1.229   1.262   1.331
    32.00    1.603   1.702   1.752   1.658   1.705   1.754   1.766   1.729   1.723   1.799   1.772   1.580   1.450   1.545   1.438   1.382   1.346   1.309   1.216   1.122   1.181   1.119   1.157   1.199   1.176   1.147   1.263   1.161   1.288   1.319   1.337
    27.17    1.623   1.748   1.676   1.635   1.725   1.723   1.788   1.800   1.782   1.753   1.602   1.590   1.500   1.440   1.522   1.471   1.347   1.249   1.286   1.156   1.183   1.142   1.178   1.148   1.246   1.229   1.249   1.190   1.202   1.247   1.397
    22.33    1.631   1.638   1.667   1.588   1.624   1.649   1.742   1.706   1.613   1.595   1.517   1.372   1.460   1.395   1.470   1.404   1.244   1.398   1.208   1.146   1.260   1.162   1.080   1.189   1.130   1.197   1.149   1.190   1.263   1.356   1.459
    17.50    1.519   1.565   1.552   1.531   1.535   1.693   1.715   1.635   1.565   1.476   1.487   1.518   1.428   1.396   1.449   1.366   1.323   1.270   1.197   1.281   1.279   1.183   1.158   1.244   1.216   1.120   1.151   1.247   1.332   1.470   1.437

   Height   Standard deviation at grid points for the v component:
   162.50    1.263   1.263   1.263   1.263   1.263   1.263   1.263   1.263   1.263   1.263   1.263   1.263   1.263   1.263   1.263   1.263   1.263   1.263   1.263   1.263   1.263   1.263   1.263   1.263   1.263   1.263   1.263   1.263   1.263   1.263   1.263
   157.67    1.263   1.263   1.263   1.263   1.263   1.263   1.263   1.263   1.263   1.263   1.263   1.263   1.263   1.263   1.263   1.263   1.263   1.263   1.263   1.263   1.263   1.263   1.263   1.263   1.263   1.263   1.263   1.263   1.263   1.263   1.263
   152.83    1.263   1.263   1.263   1.263   1.263   1.263   1.263   1.263   1.263   1.263   1.263   1.263   1.263   1.263   1.263   1.263   1.263   1.263   1.263   1.263   1.263   1.263   1.263   1.263   1.263   1.263   1.263   1.263   1.263   1.263   1.263
   148.00    1.263   1.263   1.263   1.263   1.263   1.263   1.263   1.263   1.263   1.263   1.263   1.263   1.263   1.263   1.263   1.263   1.263   1.263   1.263   1.263   1.263   1.263   1.263   1.263   1.263   1.263   1.263   1.263   1.263   1.263   1.263
   143.17    1.263   1.263   1.263   1.263   1.263   1.263   1.263   1.263   1.263   1.263   1.263   1.263   1.263   1.263   1.263   1.263   1.263   1.263   1.263   1.263   1.263   1.263   1.263   1.263   1.263   1.263   1.263   1.263   1.263   1.263   1.263
   138.33    1.263   1.263   1.263   1.263   1.263   1.263   1.263   1.263   1.263   1.263   1.263   1.263   1.263   1.263   1.263   1.263   1.263   1.263   1.263   1.263   1.263   1.263   1.263   1.263   1.263   1.263   1.263   1.263   1.263   1.263   1.263
   133.50    1.263   1.263   1.263   1.263   1.263   1.263   1.263   1.263   1.263   1.263   1.263   1.263   1.263   1.263   1.263   1.263   1.263   1.263   1.263   1.263   1.263   1.263   1.263   1.263   1.263   1.263   1.263   1.263   1.263   1.263   1.263
   128.67    1.263   1.263   1.263   1.263   1.263   1.263   1.263   1.263   1.263   1.263   1.263   1.263   1.263   1.263   1.263   1.263   1.263   1.263   1.263   1.263   1.263   1.263   1.263   1.263   1.263   1.263   1.263   1.263   1.263   1.263   1.263
   123.83    1.263   1.263   1.263   1.263   1.263   1.263   1.263   1.263   1.263   1.263   1.263   1.263   1.263   1.263   1.263   1.263   1.263   1.263   1.263   1.263   1.263   1.263   1.263   1.263   1.263   1.263   1.263   1.263   1.263   1.263   1.263
   119.00    1.263   1.263   1.263   1.263   1.263   1.263   1.263   1.263   1.263   1.263   1.263   1.263   1.263   1.263   1.263   1.263   1.263   1.263   1.263   1.263   1.263   1.263   1.263   1.263   1.263   1.263   1.263   1.263   1.263   1.263   1.263
   114.17    1.263   1.263   1.263   1.263   1.263   1.263   1.263   1.263   1.263   1.263   1.263   1.263   1.263   1.263   1.263   1.263   1.263   1.263   1.263   1.263   1.263   1.263   1.263   1.263   1.263   1.263   1.263   1.263   1.263   1.263   1.263
   109.33    1.263   1.263   1.263   1.263   1.263   1.263   1.263   1.263   1.263   1.263   1.263   1.263   1.263   1.263   1.263   1.263   1.263   1.263   1.263   1.263   1.263   1.263   1.263   1.263   1.263   1.263   1.263   1.263   1.263   1.263   1.263
   104.50    1.263   1.263   1.263   1.263   1.263   1.263   1.263   1.263   1.263   1.263   1.263   1.263   1.263   1.263   1.263   1.263   1.263   1.263   1.263   1.263   1.263   1.263   1.263   1.263   1.263   1.263   1.263   1.263   1.263   1.263   1.263
    99.67    1.263   1.263   1.263   1.263   1.263   1.263   1.263   1.263   1.263   1.263   1.263   1.263   1.263   1.263   1.263   1.263   1.263   1.263   1.263   1.263   1.263   1.263   1.263   1.263   1.263   1.263   1.263   1.263   1.263   1.263   1.263
    94.83    1.263   1.263   1.263   1.263   1.263   1.263   1.263   1.263   1.263   1.263   1.263   1.263   1.263   1.263   1.263   1.263   1.263   1.263   1.263   1.263   1.263   1.263   1.263   1.263   1.263   1.263   1.263   1.263   1.263   1.263   1.263
    90.00    1.263   1.263   1.263   1.263   1.263   1.263   1.263   1.263   1.263   1.263   1.263   1.263   1.263   1.263   1.263   1.263   1.263   1.263   1.263   1.263   1.263   1.263   1.263   1.263   1.263   1.263   1.263   1.263   1.263   1.263   1.263
    85.17    1.263   1.263   1.263   1.263   1.263   1.263   1.263   1.263   1.263   1.263   1.263   1.263   1.263   1.263   1.263   1.263   1.263   1.263   1.263   1.263   1.263   1.263   1.263   1.263   1.263   1.263   1.263   1.263   1.263   1.263   1.263
    80.33    1.263   1.263   1.263   1.263   1.263   1.263   1.263   1.263   1.263   1.263   1.263   1.263   1.263   1.263   1.263   1.263   1.263   1.263   1.263   1.263   1.263   1.263   1.263   1.263   1.263   1.263   1.263   1.263   1.263   1.263   1.263
    75.50    1.263   1.263   1.263   1.263   1.263   1.263   1.263   1.263   1.263   1.263   1.263   1.263   1.263   1.263   1.263   1.263   1.263   1.263   1.263   1.263   1.263   1.263   1.263   1.263   1.263   1.263   1.263   1.263   1.263   1.263   1.263
    70.67    1.263   1.263   1.263   1.263   1.263   1.263   1.263   1.263   1.263   1.263   1.263   1.263   1.263   1.263   1.263   1.263   1.263   1.263   1.263   1.263   1.263   1.263   1.263   1.263   1.263   1.263   1.263   1.263   1.263   1.263   1.263
    65.83    1.263   1.263   1.263   1.263   1.263   1.263   1.263   1.263   1.263   1.263   1.263   1.263   1.263   1.263   1.263   1.263   1.263   1.263   1.263   1.263   1.263   1.263   1.263   1.263   1.263   1.263   1.263   1.263   1.263   1.263   1.263
    61.00    1.263   1.263   1.263   1.263   1.263   1.263   1.263   1.263   1.263   1.263   1.263   1.263   1.263   1.263   1.263   1.263   1.263   1.263   1.263   1.263   1.263   1.263   1.263   1.263   1.263   1.263   1.263   1.263   1.263   1.263   1.263
    56.17    1.263   1.263   1.263   1.263   1.263   1.263   1.263   1.263   1.263   1.263   1.263   1.263   1.263   1.263   1.263   1.263   1.263   1.263   1.263   1.263   1.263   1.263   1.263   1.263   1.263   1.263   1.263   1.263   1.263   1.263   1.263
    51.33    1.263   1.263   1.263   1.263   1.263   1.263   1.263   1.263   1.263   1.263   1.263   1.263   1.263   1.263   1.263   1.263   1.263   1.263   1.263   1.263   1.263   1.263   1.263   1.263   1.263   1.263   1.263   1.263   1.263   1.263   1.263
    46.50    1.263   1.263   1.263   1.263   1.263   1.263   1.263   1.263   1.263   1.263   1.263   1.263   1.263   1.263   1.263   1.263   1.263   1.263   1.263   1.263   1.263   1.263   1.263   1.263   1.263   1.263   1.263   1.263   1.263   1.263   1.263
    41.67    1.263   1.263   1.263   1.263   1.263   1.263   1.263   1.263   1.263   1.263   1.263   1.263   1.263   1.263   1.263   1.263   1.263   1.263   1.263   1.263   1.263   1.263   1.263   1.263   1.263   1.263   1.263   1.263   1.263   1.263   1.263
    36.83    1.263   1.263   1.263   1.263   1.263   1.263   1.263   1.263   1.263   1.263   1.263   1.263   1.263   1.263   1.263   1.263   1.263   1.263   1.263   1.263   1.263   1.263   1.263   1.263   1.263   1.263   1.263   1.263   1.263   1.263   1.263
    32.00    1.263   1.263   1.263   1.263   1.263   1.263   1.263   1.263   1.263   1.263   1.263   1.263   1.263   1.263   1.263   1.263   1.263   1.263   1.263   1.263   1.263   1.263   1.263   1.263   1.263   1.263   1.263   1.263   1.263   1.263   1.263
    27.17    1.263   1.263   1.263   1.263   1.263   1.263   1.263   1.263   1.263   1.263   1.263   1.263   1.263   1.263   1.263   1.263   1.263   1.263   1.263   1.263   1.263   1.263   1.263   1.263   1.263   1.263   1.263   1.263   1.263   1.263   1.263
    22.33    1.263   1.263   1.263   1.263   1.263   1.263   1.263   1.263   1.263   1.263   1.263   1.263   1.263   1.263   1.263   1.263   1.263   1.263   1.263   1.263   1.263   1.263   1.263   1.263   1.263   1.263   1.263   1.263   1.263   1.263   1.263
    17.50    1.263   1.263   1.263   1.263   1.263   1.263   1.263   1.263   1.263   1.263   1.263   1.263   1.263   1.263   1.263   1.263   1.263   1.263   1.263   1.263   1.263   1.263   1.263   1.263   1.263   1.263   1.263   1.263   1.263   1.263   1.263

   Height   Standard deviation at grid points for the w component:
   162.50    0.796   0.796   0.796   0.796   0.796   0.796   0.796   0.796   0.796   0.796   0.796   0.796   0.796   0.796   0.796   0.796   0.796   0.796   0.796   0.796   0.796   0.796   0.796   0.796   0.796   0.796   0.796   0.796   0.796   0.796   0.796
   157.67    0.796   0.796   0.796   0.796   0.796   0.796   0.796   0.796   0.796   0.796   0.796   0.796   0.796   0.796   0.796   0.796   0.796   0.796   0.796   0.796   0.796   0.796   0.796   0.796   0.796   0.796   0.796   0.796   0.796   0.796   0.796
   152.83    0.796   0.796   0.796   0.796   0.796   0.796   0.796   0.796   0.796   0.796   0.796   0.796   0.796   0.796   0.796   0.796   0.796   0.796   0.796   0.796   0.796   0.796   0.796   0.796   0.796   0.796   0.796   0.796   0.796   0.796   0.796
   148.00    0.796   0.796   0.796   0.796   0.796   0.796   0.796   0.796   0.796   0.796   0.796   0.796   0.796   0.796   0.796   0.796   0.796   0.796   0.796   0.796   0.796   0.796   0.796   0.796   0.796   0.796   0.796   0.796   0.796   0.796   0.796
   143.17    0.796   0.796   0.796   0.796   0.796   0.796   0.796   0.796   0.796   0.796   0.796   0.796   0.796   0.796   0.796   0.796   0.796   0.796   0.796   0.796   0.796   0.796   0.796   0.796   0.796   0.796   0.796   0.796   0.796   0.796   0.796
   138.33    0.796   0.796   0.796   0.796   0.796   0.796   0.796   0.796   0.796   0.796   0.796   0.796   0.796   0.796   0.796   0.796   0.796   0.796   0.796   0.796   0.796   0.796   0.796   0.796   0.796   0.796   0.796   0.796   0.796   0.796   0.796
   133.50    0.796   0.796   0.796   0.796   0.796   0.796   0.796   0.796   0.796   0.796   0.796   0.796   0.796   0.796   0.796   0.796   0.796   0.796   0.796   0.796   0.796   0.796   0.796   0.796   0.796   0.796   0.796   0.796   0.796   0.796   0.796
   128.67    0.796   0.796   0.796   0.796   0.796   0.796   0.796   0.796   0.796   0.796   0.796   0.796   0.796   0.796   0.796   0.796   0.796   0.796   0.796   0.796   0.796   0.796   0.796   0.796   0.796   0.796   0.796   0.796   0.796   0.796   0.796
   123.83    0.796   0.796   0.796   0.796   0.796   0.796   0.796   0.796   0.796   0.796   0.796   0.796   0.796   0.796   0.796   0.796   0.796   0.796   0.796   0.796   0.796   0.796   0.796   0.796   0.796   0.796   0.796   0.796   0.796   0.796   0.796
   119.00    0.796   0.796   0.796   0.796   0.796   0.796   0.796   0.796   0.796   0.796   0.796   0.796   0.796   0.796   0.796   0.796   0.796   0.796   0.796   0.796   0.796   0.796   0.796   0.796   0.796   0.796   0.796   0.796   0.796   0.796   0.796
   114.17    0.796   0.796   0.796   0.796   0.796   0.796   0.796   0.796   0.796   0.796   0.796   0.796   0.796   0.796   0.796   0.796   0.796   0.796   0.796   0.796   0.796   0.796   0.796   0.796   0.796   0.796   0.796   0.796   0.796   0.796   0.796
   109.33    0.796   0.796   0.796   0.796   0.796   0.796   0.796   0.796   0.796   0.796   0.796   0.796   0.796   0.796   0.796   0.796   0.796   0.796   0.796   0.796   0.796   0.796   0.796   0.796   0.796   0.796   0.796   0.796   0.796   0.796   0.796
   104.50    0.796   0.796   0.796   0.796   0.796   0.796   0.796   0.796   0.796   0.796   0.796   0.796   0.796   0.796   0.796   0.796   0.796   0.796   0.796   0.796   0.796   0.796   0.796   0.796   0.796   0.796   0.796   0.796   0.796   0.796   0.796
    99.67    0.796   0.796   0.796   0.796   0.796   0.796   0.796   0.796   0.796   0.796   0.796   0.796   0.796   0.796   0.796   0.796   0.796   0.796   0.796   0.796   0.796   0.796   0.796   0.796   0.796   0.796   0.796   0.796   0.796   0.796   0.796
    94.83    0.796   0.796   0.796   0.796   0.796   0.796   0.796   0.796   0.796   0.796   0.796   0.796   0.796   0.796   0.796   0.796   0.796   0.796   0.796   0.796   0.796   0.796   0.796   0.796   0.796   0.796   0.796   0.796   0.796   0.796   0.796
    90.00    0.796   0.796   0.796   0.796   0.796   0.796   0.796   0.796   0.796   0.796   0.796   0.796   0.796   0.796   0.796   0.796   0.796   0.796   0.796   0.796   0.796   0.796   0.796   0.796   0.796   0.796   0.796   0.796   0.796   0.796   0.796
    85.17    0.796   0.796   0.796   0.796   0.796   0.796   0.796   0.796   0.796   0.796   0.796   0.796   0.796   0.796   0.796   0.796   0.796   0.796   0.796   0.796   0.796   0.796   0.796   0.796   0.796   0.796   0.796   0.796   0.796   0.796   0.796
    80.33    0.796   0.796   0.796   0.796   0.796   0.796   0.796   0.796   0.796   0.796   0.796   0.796   0.796   0.796   0.796   0.796   0.796   0.796   0.796   0.796   0.796   0.796   0.796   0.796   0.796   0.796   0.796   0.796   0.796   0.796   0.796
    75.50    0.796   0.796   0.796   0.796   0.796   0.796   0.796   0.796   0.796   0.796   0.796   0.796   0.796   0.796   0.796   0.796   0.796   0.796   0.796   0.796   0.796   0.796   0.796   0.796   0.796   0.796   0.796   0.796   0.796   0.796   0.796
    70.67    0.796   0.796   0.796   0.796   0.796   0.796   0.796   0.796   0.796   0.796   0.796   0.796   0.796   0.796   0.796   0.796   0.796   0.796   0.796   0.796   0.796   0.796   0.796   0.796   0.796   0.796   0.796   0.796   0.796   0.796   0.796
    65.83    0.796   0.796   0.796   0.796   0.796   0.796   0.796   0.796   0.796   0.796   0.796   0.796   0.796   0.796   0.796   0.796   0.796   0.796   0.796   0.796   0.796   0.796   0.796   0.796   0.796   0.796   0.796   0.796   0.796   0.796   0.796
    61.00    0.796   0.796   0.796   0.796   0.796   0.796   0.796   0.796   0.796   0.796   0.796   0.796   0.796   0.796   0.796   0.796   0.796   0.796   0.796   0.796   0.796   0.796   0.796   0.796   0.796   0.796   0.796   0.796   0.796   0.796   0.796
    56.17    0.796   0.796   0.796   0.796   0.796   0.796   0.796   0.796   0.796   0.796   0.796   0.796   0.796   0.796   0.796   0.796   0.796   0.796   0.796   0.796   0.796   0.796   0.796   0.796   0.796   0.796   0.796   0.796   0.796   0.796   0.796
    51.33    0.796   0.796   0.796   0.796   0.796   0.796   0.796   0.796   0.796   0.796   0.796   0.796   0.796   0.796   0.796   0.796   0.796   0.796   0.796   0.796   0.796   0.796   0.796   0.796   0.796   0.796   0.796   0.796   0.796   0.796   0.796
    46.50    0.796   0.796   0.796   0.796   0.796   0.796   0.796   0.796   0.796   0.796   0.796   0.796   0.796   0.796   0.796   0.796   0.796   0.796   0.796   0.796   0.796   0.796   0.796   0.796   0.796   0.796   0.796   0.796   0.796   0.796   0.796
    41.67    0.796   0.796   0.796   0.796   0.796   0.796   0.796   0.796   0.796   0.796   0.796   0.796   0.796   0.796   0.796   0.796   0.796   0.796   0.796   0.796   0.796   0.796   0.796   0.796   0.796   0.796   0.796   0.796   0.796   0.796   0.796
    36.83    0.796   0.796   0.796   0.796   0.796   0.796   0.796   0.796   0.796   0.796   0.796   0.796   0.796   0.796   0.796   0.796   0.796   0.796   0.796   0.796   0.796   0.796   0.796   0.796   0.796   0.796   0.796   0.796   0.796   0.796   0.796
    32.00    0.796   0.796   0.796   0.796   0.796   0.796   0.796   0.796   0.796   0.796   0.796   0.796   0.796   0.796   0.796   0.796   0.796   0.796   0.796   0.796   0.796   0.796   0.796   0.796   0.796   0.796   0.796   0.796   0.796   0.796   0.796
    27.17    0.796   0.796   0.796   0.796   0.796   0.796   0.796   0.796   0.796   0.796   0.796   0.796   0.796   0.796   0.796   0.796   0.796   0.796   0.796   0.796   0.796   0.796   0.796   0.796   0.796   0.796   0.796   0.796   0.796   0.796   0.796
    22.33    0.796   0.796   0.796   0.796   0.796   0.796   0.796   0.796   0.796   0.796   0.796   0.796   0.796   0.796   0.796   0.796   0.796   0.796   0.796   0.796   0.796   0.796   0.796   0.796   0.796   0.796   0.796   0.796   0.796   0.796   0.796
    17.50    0.796   0.796   0.796   0.796   0.796   0.796   0.796   0.796   0.796   0.796   0.796   0.796   0.796   0.796   0.796   0.796   0.796   0.796   0.796   0.796   0.796   0.796   0.796   0.796   0.796   0.796   0.796   0.796   0.796   0.796   0.796

   Mean standard deviation across all grid points:
      u component:    1.392 m/s
      v component:    1.263 m/s
      w component:    0.796 m/s


U-component (X) statistics from the interpolated hub point:

   Mean =   8.0000 m/s
   TI   =  16.2935 %


Processing complete.  179.89 CPU seconds used.
