
This summary file was generated by TurbSim (v2.01.00-max, 20-02-2019) on 22-Feb-2019 at 10:47:45.


Runtime Options:

 587225639  Random seed #1
    RANLUX  Type of random number generator
         F  Output binary HH turbulence parameters?
         F  Output formatted turbulence parameters?
         F  Output AeroDyn HH files?
         T  Output AeroDyn FF files?
         F  Output BLADED FF files?
         T  Output tower data?
         F  Output formatted FF files?
         F  Output coherent turbulence time step file?
         T  Clockwise rotation when looking downwind?
 0 -  NONE  IEC turbulence models scaled to exact specified standard deviation


Turbine/Model Specifications:

        31  Vertical grid-point matrix dimension
        31  Horizontal grid-point matrix dimension
     0.050  Time step [seconds]
   630.000  Analysis time [seconds]
   630.000  Usable output time [seconds]
    90.000  Hub height [m]
   145.000  Grid height [m]
   145.000  Grid width [m]
     8.000  Vertical flow angle [degrees]
     0.000  Horizontal flow angle [degrees]


Meteorological Boundary Conditions:

    IECKAI  IEC Kaimal spectral model
         1  IEC standard: IEC 61400-1 Ed. 3: 2005
    16.000  Percent turbulence intensity, IEC 61400-1 Ed. 3: 2005
       NTM  IEC Normal Turbulence Model
       N/A  IEC Extreme Turbulence Model (ETM) "c" parameter [m/s]
       PL   Wind profile type
    90.000  Reference height [m]
     8.000  Reference wind speed [m/s]
       N/A  Jet height [m]
     0.200  Power law exponent
     0.030  Surface roughness length [m]


Non-IEC Meteorological Boundary Conditions:

       N/A  Site latitude [degrees]
       N/A  Gradient Richardson number
       N/A  Friction or shear velocity [m/s]
       N/A  Mixing layer depth [m]
       N/A  Mean hub u'w' Reynolds stress
       N/A  Mean hub u'v' Reynolds stress
       N/A  Mean hub v'w' Reynolds stress


Spatial Coherence Models:

       IEC  u-component coherence model
       IEC  v-component coherence model
       IEC  w-component coherence model
(   12.000, 0.353E-03)  u-component coherence parameters
(*********,  0.00    )  v-component coherence parameters
(*********,  0.00    )  w-component coherence parameters
       N/A  Coherence exponent


You have requested that the following file(s) be generated:

   08_b.bts (AeroDyn/TurbSim full-field wind file)


Turbulence Simulation Scaling Parameter Summary:

   Turbulence model used                            =  IEC Kaimal
   Turbulence characteristic                        =  User-specified
   IEC standard                                     =  IEC 61400-1 Ed. 3: 2005
   Mean wind speed at hub height                    =    8.000 m/s
   Characteristic value of standard deviation       =    1.280 m/s
   Turbulence scale                                 =   42.000 m
   u-component integral scale                       =  340.200 m
   Coherency scale                                  =  340.200 m
   Characteristic value of hub turbulence intensity =   16.000%
   Gradient Richardson number                       =    0.000

   Wind profile type                                =  Power law
   Power law exponent                               =    0.200
   Mean shear across rotor disk                     =    0.022 (m/s)/m
   Assumed rotor diameter                           =  145.000 m
   Surface roughness length                         =    0.030 m

   Nyquist frequency of turbulent wind field        =   10.000 Hz

   Number of time steps in the FFT                  =    12600
   Number of time steps output                      =    12600
   Number of points simulated                       =      964


Mean Flow Angles:

   Vertical   =   8.0 degrees
   Horizontal =   0.0 degrees

Mean Wind Speed Profile:

   Height    Wind Speed   Horizontal Angle  Vertical Angle  U-comp (X)   V-comp (Y)   W-comp (Z)
     (m)        (m/s)         (degrees)       (degrees)       (m/s)        (m/s)        (m/s)   
   ------    ----------   ----------------  --------------  ----------   ----------   ----------
    162.5        9.00            0.00            8.00          8.92         0.00         1.25
    157.7        8.95            0.00            8.00          8.86         0.00         1.25
    152.8        8.89            0.00            8.00          8.81         0.00         1.24
    148.0        8.84            0.00            8.00          8.75         0.00         1.23
    143.2        8.78            0.00            8.00          8.69         0.00         1.22
    138.3        8.72            0.00            8.00          8.63         0.00         1.21
    133.5        8.66            0.00            8.00          8.57         0.00         1.20
    128.7        8.59            0.00            8.00          8.51         0.00         1.20
    123.8        8.53            0.00            8.00          8.44         0.00         1.19
    119.0        8.46            0.00            8.00          8.38         0.00         1.18
    114.2        8.39            0.00            8.00          8.31         0.00         1.17
    109.3        8.32            0.00            8.00          8.24         0.00         1.16
    104.5        8.24            0.00            8.00          8.16         0.00         1.15
     99.7        8.16            0.00            8.00          8.09         0.00         1.14
     94.8        8.08            0.00            8.00          8.01         0.00         1.13
     90.0        8.00            0.00            8.00          7.92         0.00         1.11
     85.2        7.91            0.00            8.00          7.84         0.00         1.10
     80.3        7.82            0.00            8.00          7.74         0.00         1.09
     75.5        7.72            0.00            8.00          7.65         0.00         1.07
     70.7        7.62            0.00            8.00          7.55         0.00         1.06
     65.8        7.52            0.00            8.00          7.44         0.00         1.05
     61.0        7.40            0.00            8.00          7.33         0.00         1.03
     56.2        7.28            0.00            8.00          7.21         0.00         1.01
     51.3        7.15            0.00            8.00          7.08         0.00         1.00
     46.5        7.01            0.00            8.00          6.94         0.00         0.98
     41.7        6.86            0.00            8.00          6.79         0.00         0.95
     36.8        6.69            0.00            8.00          6.63         0.00         0.93
     32.0        6.51            0.00            8.00          6.44         0.00         0.91
     27.2        6.30            0.00            8.00          6.23         0.00         0.88
     22.3        6.05            0.00            8.00          5.99         0.00         0.84
     17.5        5.77            0.00            8.00          5.71         0.00         0.80
     12.7        5.40            0.00            8.00          5.35         0.00         0.75
      7.8        4.91            0.00            8.00          4.86         0.00         0.68
      3.0        4.05            0.00            8.00          4.01         0.00         0.56


Harvested Random Seeds after Generation of the Random Numbers:

    169290450 K 1
            0 K 2


Hub-Height Simulated Turbulence Statistical Summary:

   Type of Wind        Min (m/s)   Mean (m/s)    Max (m/s)  Sigma (m/s)       TI (%)
   ----------------    ---------   ----------    ---------  -----------       ------
   Longitudinal (u)         4.85         8.00        11.36        1.109       13.857
   Lateral (v)             -3.03         0.00         3.16        0.996       12.447
   Vertical (w)            -1.91        -0.00         2.19        0.627        7.841
   U component              4.79         7.92        11.43        1.101       13.898
   V component             -3.03         0.00         3.16        0.996       12.569
   W component             -0.90         1.11         3.33        0.640        8.083
   Horizontal (U&V)         4.80         7.98        11.45        1.115       13.968
   Total                    4.85         8.08        11.46        1.117       13.820

                       Min Reynolds     Mean Reynolds    Max Reynolds    Correlation
   Product             Stress (m/s)^2   Stress (m/s)^2   Stress (m/s)^2  Coefficient
   ----------------    --------------   --------------   --------------  -----------
   u'w'                     -4.430             0.001             3.941         0.002
   u'v'                     -7.373            -0.057             6.669        -0.052
   v'w'                     -4.438            -0.024             2.775        -0.038


   Friction Velocity (Ustar)  =      0.037 m/s
   Maximum Instantaneous TKE  =      7.424 (m/s)^2
   Maximum Instantaneous CTKE =      3.737 (m/s)^2


Grid Point Variance Summary:

   Y-coord  -72.50  -67.67  -62.83  -58.00  -53.17  -48.33  -43.50  -38.67  -33.83  -29.00  -24.17  -19.33  -14.50   -9.67   -4.83    0.00    4.83    9.67   14.50   19.33   24.17   29.00   33.83   38.67   43.50   48.33   53.17   58.00   62.83   67.67   72.50

   Height   Standard deviation at grid points for the u component:
   162.50    1.165   1.181   1.216   1.169   1.200   1.239   1.208   1.195   1.236   1.283   1.280   1.304   1.409   1.309   1.299   1.169   1.107   1.131   1.171   1.159   1.164   1.163   1.065   1.046   1.041   1.077   1.160   1.148   1.211   1.115   1.130
   157.67    1.155   1.189   1.189   1.166   1.120   1.222   1.308   1.180   1.160   1.216   1.269   1.347   1.362   1.295   1.209   1.162   1.162   1.115   1.117   1.111   1.148   1.090   1.090   0.947   0.993   1.061   1.071   1.123   1.150   1.172   1.211
   152.83    1.120   1.119   1.091   1.107   1.114   1.186   1.225   1.230   1.159   1.215   1.259   1.318   1.239   1.193   1.189   1.155   1.145   1.157   1.101   1.152   1.130   1.092   1.034   0.972   0.943   1.027   1.048   1.050   1.128   1.097   1.127
   148.00    1.094   1.062   1.030   1.054   1.128   1.132   1.146   1.205   1.181   1.157   1.240   1.298   1.242   1.167   1.063   1.083   1.086   1.118   1.170   1.124   1.133   1.175   1.062   0.997   1.021   1.064   1.015   1.052   1.115   1.205   1.133
   143.17    1.074   1.035   0.956   0.974   1.081   1.110   1.114   1.188   1.110   1.151   1.212   1.268   1.217   1.154   1.059   1.081   1.054   1.090   1.124   1.069   0.988   1.054   1.020   0.976   0.958   1.066   1.089   1.082   1.111   1.197   1.142
   138.33    0.992   1.000   0.962   0.938   1.042   1.131   1.086   1.072   1.139   1.181   1.185   1.184   1.197   1.140   1.125   1.103   1.075   1.011   0.987   1.029   0.956   1.042   1.064   0.976   0.991   1.018   1.070   1.180   1.131   1.122   1.165
   133.50    1.036   1.010   0.939   0.939   0.970   1.064   1.090   1.085   1.070   1.111   1.132   1.065   1.047   1.070   1.084   1.077   1.046   1.008   1.018   1.048   1.071   1.041   1.132   1.034   1.012   1.046   1.007   1.083   1.136   1.089   1.091
   128.67    0.952   1.037   0.968   0.929   1.026   1.080   1.038   1.009   1.010   1.083   0.999   1.003   1.031   1.104   1.092   0.980   1.033   1.043   1.047   1.012   1.014   1.094   1.100   1.040   0.970   1.085   1.022   1.083   1.140   1.091   1.113
   123.83    1.060   1.065   1.069   1.071   1.063   1.005   1.019   0.919   1.018   1.033   0.975   0.962   1.055   1.118   1.077   1.053   1.047   1.079   1.043   1.015   1.049   1.051   1.059   1.051   0.989   1.041   1.054   1.137   1.165   1.177   1.119
   119.00    1.099   1.039   1.103   1.088   1.137   1.038   0.944   0.913   1.005   1.034   1.053   1.080   1.129   1.112   1.084   0.980   1.052   1.044   0.972   1.012   1.046   1.046   1.100   1.011   1.006   1.027   1.043   1.047   1.069   1.083   1.067
   114.17    1.111   1.069   1.097   1.118   1.101   1.067   1.014   1.051   1.034   1.055   1.054   1.079   1.045   1.075   1.030   0.996   1.000   1.025   0.987   1.032   1.050   1.100   1.124   1.096   1.105   0.946   1.055   1.059   1.083   1.128   1.132
   109.33    1.188   1.083   1.137   1.108   1.082   1.077   1.077   1.070   1.096   1.008   1.067   1.028   1.032   1.135   1.102   1.023   1.002   0.972   0.964   0.955   0.981   1.081   1.084   1.130   1.152   1.050   1.042   1.063   1.021   1.064   1.053
   104.50    1.168   1.103   1.125   1.095   1.096   1.006   1.040   1.054   1.035   1.082   1.032   1.012   1.022   1.049   1.061   1.095   1.051   1.050   1.003   0.969   0.980   1.116   1.211   1.188   1.200   1.122   1.109   1.059   1.030   0.996   0.995
    99.67    1.159   1.161   1.164   1.077   1.024   0.979   1.033   1.038   1.056   1.076   1.040   1.015   1.022   1.058   1.076   1.096   1.066   1.041   1.008   1.059   1.031   1.065   1.221   1.267   1.263   1.156   1.092   1.107   1.073   1.066   1.081
    94.83    1.138   1.077   1.077   1.024   1.016   0.966   0.973   1.012   1.001   1.062   1.023   0.947   1.011   1.026   1.078   1.130   1.030   1.106   1.063   1.112   1.241   1.193   1.221   1.275   1.192   1.166   1.173   1.148   1.165   1.068   0.988
    90.00    1.105   1.121   1.083   1.006   1.029   0.956   1.004   1.004   1.047   1.051   0.979   0.992   0.967   1.019   1.043   1.109   1.037   1.030   0.999   1.065   1.127   1.143   1.146   1.202   1.228   1.174   1.161   1.131   1.078   1.032   1.016
    85.17    1.117   1.082   1.072   0.996   0.994   0.935   0.986   1.042   1.087   1.025   1.010   0.957   0.932   0.912   0.957   0.947   1.009   1.023   1.114   1.064   1.069   1.020   1.046   1.105   1.152   1.188   1.125   1.045   1.077   1.027   0.985
    80.33    1.130   1.124   1.111   1.016   0.964   0.943   1.010   1.072   1.054   1.063   1.028   0.954   0.997   1.023   1.031   0.947   0.999   0.956   1.039   1.005   0.988   0.913   0.996   1.113   1.068   1.059   1.069   1.066   1.072   1.025   1.032
    75.50    1.085   1.190   1.206   1.183   1.063   1.018   1.103   1.047   1.125   1.078   1.016   0.999   1.003   1.007   0.984   0.897   0.994   0.991   0.980   0.959   0.946   0.964   0.982   1.036   1.082   1.077   1.020   0.984   1.041   1.013   1.101
    70.67    1.111   1.158   1.163   1.128   1.121   1.065   1.071   1.108   1.091   1.072   1.041   1.044   1.026   0.983   0.909   0.935   0.966   0.961   0.896   0.929   0.871   0.930   0.899   0.889   0.973   0.937   0.992   1.015   0.997   1.057   1.070
    65.83    1.049   1.107   1.080   1.110   1.055   1.000   0.981   1.038   1.067   1.118   1.005   1.044   1.035   1.015   0.883   0.924   0.975   1.002   0.955   0.904   0.886   0.947   0.870   0.949   0.872   0.922   0.909   0.913   0.927   1.002   1.046
    61.00    0.997   1.035   1.056   0.986   1.083   1.025   1.118   1.073   1.041   1.107   1.014   1.087   1.005   1.029   0.930   0.894   0.994   0.999   1.023   0.924   0.967   0.891   0.875   0.870   0.879   0.898   0.909   0.897   0.897   0.973   1.006
    56.17    0.958   1.002   1.057   1.003   1.046   0.998   1.038   1.011   0.979   1.090   1.005   1.036   1.085   1.068   0.974   0.991   1.000   1.062   1.114   1.032   0.950   0.868   0.960   0.998   0.988   0.956   0.969   0.888   0.883   0.943   1.030
    51.33    0.997   1.033   1.066   0.981   1.028   1.005   1.064   1.027   1.074   1.062   1.054   1.048   1.077   1.001   0.996   1.018   1.002   1.007   1.079   1.063   1.023   0.958   1.042   1.077   1.050   1.100   0.996   0.918   0.895   0.944   0.923
    46.50    1.021   0.987   1.040   0.997   1.055   1.023   1.078   1.066   1.073   1.081   1.121   1.140   1.068   0.969   1.002   0.994   0.980   1.098   1.096   1.136   1.122   1.067   1.045   1.061   1.033   1.038   0.957   0.934   0.901   0.933   0.937
    41.67    1.047   1.019   1.068   1.054   1.078   1.091   1.055   1.042   1.076   1.094   1.207   1.199   1.152   1.033   0.985   0.975   1.066   1.107   1.123   1.122   1.057   1.021   1.024   1.012   1.020   0.971   0.949   0.922   0.938   0.979   0.976
    36.83    1.055   1.040   1.147   1.122   1.173   1.102   1.098   1.112   1.087   1.109   1.201   1.183   1.199   1.100   1.006   0.953   1.060   1.090   1.152   1.029   1.113   1.023   1.007   1.030   1.041   0.983   0.970   0.890   0.943   0.962   0.983
    32.00    1.095   1.120   1.113   1.171   1.158   1.182   1.165   1.215   1.217   1.240   1.244   1.203   1.216   1.135   1.088   1.067   0.994   1.070   1.054   1.072   1.052   1.036   1.049   1.034   1.090   0.989   1.024   0.954   0.979   1.013   1.003
    27.17    1.192   1.137   1.162   1.134   1.139   1.148   1.200   1.170   1.281   1.345   1.274   1.276   1.237   1.127   1.159   1.051   1.053   1.096   1.013   0.998   1.046   1.019   1.095   1.064   1.111   1.039   1.000   1.043   1.048   1.070   1.009
    22.33    1.172   1.125   1.157   1.171   1.138   1.164   1.195   1.244   1.273   1.347   1.446   1.387   1.306   1.203   1.122   1.107   1.116   1.083   1.034   1.066   1.039   1.019   1.064   1.041   1.079   1.022   1.075   1.134   1.026   1.073   0.976
    17.50    1.197   1.163   1.132   1.149   1.169   1.264   1.194   1.228   1.279   1.310   1.382   1.356   1.335   1.218   1.184   1.157   1.044   1.176   1.099   1.078   1.046   1.017   1.011   0.983   0.951   0.962   1.049   1.078   1.010   0.993   1.037

   Height   Standard deviation at grid points for the v component:
   162.50    0.996   0.996   0.996   0.996   0.996   0.996   0.996   0.996   0.996   0.996   0.996   0.996   0.996   0.996   0.996   0.996   0.996   0.996   0.996   0.996   0.996   0.996   0.996   0.996   0.996   0.996   0.996   0.996   0.996   0.996   0.996
   157.67    0.996   0.996   0.996   0.996   0.996   0.996   0.996   0.996   0.996   0.996   0.996   0.996   0.996   0.996   0.996   0.996   0.996   0.996   0.996   0.996   0.996   0.996   0.996   0.996   0.996   0.996   0.996   0.996   0.996   0.996   0.996
   152.83    0.996   0.996   0.996   0.996   0.996   0.996   0.996   0.996   0.996   0.996   0.996   0.996   0.996   0.996   0.996   0.996   0.996   0.996   0.996   0.996   0.996   0.996   0.996   0.996   0.996   0.996   0.996   0.996   0.996   0.996   0.996
   148.00    0.996   0.996   0.996   0.996   0.996   0.996   0.996   0.996   0.996   0.996   0.996   0.996   0.996   0.996   0.996   0.996   0.996   0.996   0.996   0.996   0.996   0.996   0.996   0.996   0.996   0.996   0.996   0.996   0.996   0.996   0.996
   143.17    0.996   0.996   0.996   0.996   0.996   0.996   0.996   0.996   0.996   0.996   0.996   0.996   0.996   0.996   0.996   0.996   0.996   0.996   0.996   0.996   0.996   0.996   0.996   0.996   0.996   0.996   0.996   0.996   0.996   0.996   0.996
   138.33    0.996   0.996   0.996   0.996   0.996   0.996   0.996   0.996   0.996   0.996   0.996   0.996   0.996   0.996   0.996   0.996   0.996   0.996   0.996   0.996   0.996   0.996   0.996   0.996   0.996   0.996   0.996   0.996   0.996   0.996   0.996
   133.50    0.996   0.996   0.996   0.996   0.996   0.996   0.996   0.996   0.996   0.996   0.996   0.996   0.996   0.996   0.996   0.996   0.996   0.996   0.996   0.996   0.996   0.996   0.996   0.996   0.996   0.996   0.996   0.996   0.996   0.996   0.996
   128.67    0.996   0.996   0.996   0.996   0.996   0.996   0.996   0.996   0.996   0.996   0.996   0.996   0.996   0.996   0.996   0.996   0.996   0.996   0.996   0.996   0.996   0.996   0.996   0.996   0.996   0.996   0.996   0.996   0.996   0.996   0.996
   123.83    0.996   0.996   0.996   0.996   0.996   0.996   0.996   0.996   0.996   0.996   0.996   0.996   0.996   0.996   0.996   0.996   0.996   0.996   0.996   0.996   0.996   0.996   0.996   0.996   0.996   0.996   0.996   0.996   0.996   0.996   0.996
   119.00    0.996   0.996   0.996   0.996   0.996   0.996   0.996   0.996   0.996   0.996   0.996   0.996   0.996   0.996   0.996   0.996   0.996   0.996   0.996   0.996   0.996   0.996   0.996   0.996   0.996   0.996   0.996   0.996   0.996   0.996   0.996
   114.17    0.996   0.996   0.996   0.996   0.996   0.996   0.996   0.996   0.996   0.996   0.996   0.996   0.996   0.996   0.996   0.996   0.996   0.996   0.996   0.996   0.996   0.996   0.996   0.996   0.996   0.996   0.996   0.996   0.996   0.996   0.996
   109.33    0.996   0.996   0.996   0.996   0.996   0.996   0.996   0.996   0.996   0.996   0.996   0.996   0.996   0.996   0.996   0.996   0.996   0.996   0.996   0.996   0.996   0.996   0.996   0.996   0.996   0.996   0.996   0.996   0.996   0.996   0.996
   104.50    0.996   0.996   0.996   0.996   0.996   0.996   0.996   0.996   0.996   0.996   0.996   0.996   0.996   0.996   0.996   0.996   0.996   0.996   0.996   0.996   0.996   0.996   0.996   0.996   0.996   0.996   0.996   0.996   0.996   0.996   0.996
    99.67    0.996   0.996   0.996   0.996   0.996   0.996   0.996   0.996   0.996   0.996   0.996   0.996   0.996   0.996   0.996   0.996   0.996   0.996   0.996   0.996   0.996   0.996   0.996   0.996   0.996   0.996   0.996   0.996   0.996   0.996   0.996
    94.83    0.996   0.996   0.996   0.996   0.996   0.996   0.996   0.996   0.996   0.996   0.996   0.996   0.996   0.996   0.996   0.996   0.996   0.996   0.996   0.996   0.996   0.996   0.996   0.996   0.996   0.996   0.996   0.996   0.996   0.996   0.996
    90.00    0.996   0.996   0.996   0.996   0.996   0.996   0.996   0.996   0.996   0.996   0.996   0.996   0.996   0.996   0.996   0.996   0.996   0.996   0.996   0.996   0.996   0.996   0.996   0.996   0.996   0.996   0.996   0.996   0.996   0.996   0.996
    85.17    0.996   0.996   0.996   0.996   0.996   0.996   0.996   0.996   0.996   0.996   0.996   0.996   0.996   0.996   0.996   0.996   0.996   0.996   0.996   0.996   0.996   0.996   0.996   0.996   0.996   0.996   0.996   0.996   0.996   0.996   0.996
    80.33    0.996   0.996   0.996   0.996   0.996   0.996   0.996   0.996   0.996   0.996   0.996   0.996   0.996   0.996   0.996   0.996   0.996   0.996   0.996   0.996   0.996   0.996   0.996   0.996   0.996   0.996   0.996   0.996   0.996   0.996   0.996
    75.50    0.996   0.996   0.996   0.996   0.996   0.996   0.996   0.996   0.996   0.996   0.996   0.996   0.996   0.996   0.996   0.996   0.996   0.996   0.996   0.996   0.996   0.996   0.996   0.996   0.996   0.996   0.996   0.996   0.996   0.996   0.996
    70.67    0.996   0.996   0.996   0.996   0.996   0.996   0.996   0.996   0.996   0.996   0.996   0.996   0.996   0.996   0.996   0.996   0.996   0.996   0.996   0.996   0.996   0.996   0.996   0.996   0.996   0.996   0.996   0.996   0.996   0.996   0.996
    65.83    0.996   0.996   0.996   0.996   0.996   0.996   0.996   0.996   0.996   0.996   0.996   0.996   0.996   0.996   0.996   0.996   0.996   0.996   0.996   0.996   0.996   0.996   0.996   0.996   0.996   0.996   0.996   0.996   0.996   0.996   0.996
    61.00    0.996   0.996   0.996   0.996   0.996   0.996   0.996   0.996   0.996   0.996   0.996   0.996   0.996   0.996   0.996   0.996   0.996   0.996   0.996   0.996   0.996   0.996   0.996   0.996   0.996   0.996   0.996   0.996   0.996   0.996   0.996
    56.17    0.996   0.996   0.996   0.996   0.996   0.996   0.996   0.996   0.996   0.996   0.996   0.996   0.996   0.996   0.996   0.996   0.996   0.996   0.996   0.996   0.996   0.996   0.996   0.996   0.996   0.996   0.996   0.996   0.996   0.996   0.996
    51.33    0.996   0.996   0.996   0.996   0.996   0.996   0.996   0.996   0.996   0.996   0.996   0.996   0.996   0.996   0.996   0.996   0.996   0.996   0.996   0.996   0.996   0.996   0.996   0.996   0.996   0.996   0.996   0.996   0.996   0.996   0.996
    46.50    0.996   0.996   0.996   0.996   0.996   0.996   0.996   0.996   0.996   0.996   0.996   0.996   0.996   0.996   0.996   0.996   0.996   0.996   0.996   0.996   0.996   0.996   0.996   0.996   0.996   0.996   0.996   0.996   0.996   0.996   0.996
    41.67    0.996   0.996   0.996   0.996   0.996   0.996   0.996   0.996   0.996   0.996   0.996   0.996   0.996   0.996   0.996   0.996   0.996   0.996   0.996   0.996   0.996   0.996   0.996   0.996   0.996   0.996   0.996   0.996   0.996   0.996   0.996
    36.83    0.996   0.996   0.996   0.996   0.996   0.996   0.996   0.996   0.996   0.996   0.996   0.996   0.996   0.996   0.996   0.996   0.996   0.996   0.996   0.996   0.996   0.996   0.996   0.996   0.996   0.996   0.996   0.996   0.996   0.996   0.996
    32.00    0.996   0.996   0.996   0.996   0.996   0.996   0.996   0.996   0.996   0.996   0.996   0.996   0.996   0.996   0.996   0.996   0.996   0.996   0.996   0.996   0.996   0.996   0.996   0.996   0.996   0.996   0.996   0.996   0.996   0.996   0.996
    27.17    0.996   0.996   0.996   0.996   0.996   0.996   0.996   0.996   0.996   0.996   0.996   0.996   0.996   0.996   0.996   0.996   0.996   0.996   0.996   0.996   0.996   0.996   0.996   0.996   0.996   0.996   0.996   0.996   0.996   0.996   0.996
    22.33    0.996   0.996   0.996   0.996   0.996   0.996   0.996   0.996   0.996   0.996   0.996   0.996   0.996   0.996   0.996   0.996   0.996   0.996   0.996   0.996   0.996   0.996   0.996   0.996   0.996   0.996   0.996   0.996   0.996   0.996   0.996
    17.50    0.996   0.996   0.996   0.996   0.996   0.996   0.996   0.996   0.996   0.996   0.996   0.996   0.996   0.996   0.996   0.996   0.996   0.996   0.996   0.996   0.996   0.996   0.996   0.996   0.996   0.996   0.996   0.996   0.996   0.996   0.996

   Height   Standard deviation at grid points for the w component:
   162.50    0.627   0.627   0.627   0.627   0.627   0.627   0.627   0.627   0.627   0.627   0.627   0.627   0.627   0.627   0.627   0.627   0.627   0.627   0.627   0.627   0.627   0.627   0.627   0.627   0.627   0.627   0.627   0.627   0.627   0.627   0.627
   157.67    0.627   0.627   0.627   0.627   0.627   0.627   0.627   0.627   0.627   0.627   0.627   0.627   0.627   0.627   0.627   0.627   0.627   0.627   0.627   0.627   0.627   0.627   0.627   0.627   0.627   0.627   0.627   0.627   0.627   0.627   0.627
   152.83    0.627   0.627   0.627   0.627   0.627   0.627   0.627   0.627   0.627   0.627   0.627   0.627   0.627   0.627   0.627   0.627   0.627   0.627   0.627   0.627   0.627   0.627   0.627   0.627   0.627   0.627   0.627   0.627   0.627   0.627   0.627
   148.00    0.627   0.627   0.627   0.627   0.627   0.627   0.627   0.627   0.627   0.627   0.627   0.627   0.627   0.627   0.627   0.627   0.627   0.627   0.627   0.627   0.627   0.627   0.627   0.627   0.627   0.627   0.627   0.627   0.627   0.627   0.627
   143.17    0.627   0.627   0.627   0.627   0.627   0.627   0.627   0.627   0.627   0.627   0.627   0.627   0.627   0.627   0.627   0.627   0.627   0.627   0.627   0.627   0.627   0.627   0.627   0.627   0.627   0.627   0.627   0.627   0.627   0.627   0.627
   138.33    0.627   0.627   0.627   0.627   0.627   0.627   0.627   0.627   0.627   0.627   0.627   0.627   0.627   0.627   0.627   0.627   0.627   0.627   0.627   0.627   0.627   0.627   0.627   0.627   0.627   0.627   0.627   0.627   0.627   0.627   0.627
   133.50    0.627   0.627   0.627   0.627   0.627   0.627   0.627   0.627   0.627   0.627   0.627   0.627   0.627   0.627   0.627   0.627   0.627   0.627   0.627   0.627   0.627   0.627   0.627   0.627   0.627   0.627   0.627   0.627   0.627   0.627   0.627
   128.67    0.627   0.627   0.627   0.627   0.627   0.627   0.627   0.627   0.627   0.627   0.627   0.627   0.627   0.627   0.627   0.627   0.627   0.627   0.627   0.627   0.627   0.627   0.627   0.627   0.627   0.627   0.627   0.627   0.627   0.627   0.627
   123.83    0.627   0.627   0.627   0.627   0.627   0.627   0.627   0.627   0.627   0.627   0.627   0.627   0.627   0.627   0.627   0.627   0.627   0.627   0.627   0.627   0.627   0.627   0.627   0.627   0.627   0.627   0.627   0.627   0.627   0.627   0.627
   119.00    0.627   0.627   0.627   0.627   0.627   0.627   0.627   0.627   0.627   0.627   0.627   0.627   0.627   0.627   0.627   0.627   0.627   0.627   0.627   0.627   0.627   0.627   0.627   0.627   0.627   0.627   0.627   0.627   0.627   0.627   0.627
   114.17    0.627   0.627   0.627   0.627   0.627   0.627   0.627   0.627   0.627   0.627   0.627   0.627   0.627   0.627   0.627   0.627   0.627   0.627   0.627   0.627   0.627   0.627   0.627   0.627   0.627   0.627   0.627   0.627   0.627   0.627   0.627
   109.33    0.627   0.627   0.627   0.627   0.627   0.627   0.627   0.627   0.627   0.627   0.627   0.627   0.627   0.627   0.627   0.627   0.627   0.627   0.627   0.627   0.627   0.627   0.627   0.627   0.627   0.627   0.627   0.627   0.627   0.627   0.627
   104.50    0.627   0.627   0.627   0.627   0.627   0.627   0.627   0.627   0.627   0.627   0.627   0.627   0.627   0.627   0.627   0.627   0.627   0.627   0.627   0.627   0.627   0.627   0.627   0.627   0.627   0.627   0.627   0.627   0.627   0.627   0.627
    99.67    0.627   0.627   0.627   0.627   0.627   0.627   0.627   0.627   0.627   0.627   0.627   0.627   0.627   0.627   0.627   0.627   0.627   0.627   0.627   0.627   0.627   0.627   0.627   0.627   0.627   0.627   0.627   0.627   0.627   0.627   0.627
    94.83    0.627   0.627   0.627   0.627   0.627   0.627   0.627   0.627   0.627   0.627   0.627   0.627   0.627   0.627   0.627   0.627   0.627   0.627   0.627   0.627   0.627   0.627   0.627   0.627   0.627   0.627   0.627   0.627   0.627   0.627   0.627
    90.00    0.627   0.627   0.627   0.627   0.627   0.627   0.627   0.627   0.627   0.627   0.627   0.627   0.627   0.627   0.627   0.627   0.627   0.627   0.627   0.627   0.627   0.627   0.627   0.627   0.627   0.627   0.627   0.627   0.627   0.627   0.627
    85.17    0.627   0.627   0.627   0.627   0.627   0.627   0.627   0.627   0.627   0.627   0.627   0.627   0.627   0.627   0.627   0.627   0.627   0.627   0.627   0.627   0.627   0.627   0.627   0.627   0.627   0.627   0.627   0.627   0.627   0.627   0.627
    80.33    0.627   0.627   0.627   0.627   0.627   0.627   0.627   0.627   0.627   0.627   0.627   0.627   0.627   0.627   0.627   0.627   0.627   0.627   0.627   0.627   0.627   0.627   0.627   0.627   0.627   0.627   0.627   0.627   0.627   0.627   0.627
    75.50    0.627   0.627   0.627   0.627   0.627   0.627   0.627   0.627   0.627   0.627   0.627   0.627   0.627   0.627   0.627   0.627   0.627   0.627   0.627   0.627   0.627   0.627   0.627   0.627   0.627   0.627   0.627   0.627   0.627   0.627   0.627
    70.67    0.627   0.627   0.627   0.627   0.627   0.627   0.627   0.627   0.627   0.627   0.627   0.627   0.627   0.627   0.627   0.627   0.627   0.627   0.627   0.627   0.627   0.627   0.627   0.627   0.627   0.627   0.627   0.627   0.627   0.627   0.627
    65.83    0.627   0.627   0.627   0.627   0.627   0.627   0.627   0.627   0.627   0.627   0.627   0.627   0.627   0.627   0.627   0.627   0.627   0.627   0.627   0.627   0.627   0.627   0.627   0.627   0.627   0.627   0.627   0.627   0.627   0.627   0.627
    61.00    0.627   0.627   0.627   0.627   0.627   0.627   0.627   0.627   0.627   0.627   0.627   0.627   0.627   0.627   0.627   0.627   0.627   0.627   0.627   0.627   0.627   0.627   0.627   0.627   0.627   0.627   0.627   0.627   0.627   0.627   0.627
    56.17    0.627   0.627   0.627   0.627   0.627   0.627   0.627   0.627   0.627   0.627   0.627   0.627   0.627   0.627   0.627   0.627   0.627   0.627   0.627   0.627   0.627   0.627   0.627   0.627   0.627   0.627   0.627   0.627   0.627   0.627   0.627
    51.33    0.627   0.627   0.627   0.627   0.627   0.627   0.627   0.627   0.627   0.627   0.627   0.627   0.627   0.627   0.627   0.627   0.627   0.627   0.627   0.627   0.627   0.627   0.627   0.627   0.627   0.627   0.627   0.627   0.627   0.627   0.627
    46.50    0.627   0.627   0.627   0.627   0.627   0.627   0.627   0.627   0.627   0.627   0.627   0.627   0.627   0.627   0.627   0.627   0.627   0.627   0.627   0.627   0.627   0.627   0.627   0.627   0.627   0.627   0.627   0.627   0.627   0.627   0.627
    41.67    0.627   0.627   0.627   0.627   0.627   0.627   0.627   0.627   0.627   0.627   0.627   0.627   0.627   0.627   0.627   0.627   0.627   0.627   0.627   0.627   0.627   0.627   0.627   0.627   0.627   0.627   0.627   0.627   0.627   0.627   0.627
    36.83    0.627   0.627   0.627   0.627   0.627   0.627   0.627   0.627   0.627   0.627   0.627   0.627   0.627   0.627   0.627   0.627   0.627   0.627   0.627   0.627   0.627   0.627   0.627   0.627   0.627   0.627   0.627   0.627   0.627   0.627   0.627
    32.00    0.627   0.627   0.627   0.627   0.627   0.627   0.627   0.627   0.627   0.627   0.627   0.627   0.627   0.627   0.627   0.627   0.627   0.627   0.627   0.627   0.627   0.627   0.627   0.627   0.627   0.627   0.627   0.627   0.627   0.627   0.627
    27.17    0.627   0.627   0.627   0.627   0.627   0.627   0.627   0.627   0.627   0.627   0.627   0.627   0.627   0.627   0.627   0.627   0.627   0.627   0.627   0.627   0.627   0.627   0.627   0.627   0.627   0.627   0.627   0.627   0.627   0.627   0.627
    22.33    0.627   0.627   0.627   0.627   0.627   0.627   0.627   0.627   0.627   0.627   0.627   0.627   0.627   0.627   0.627   0.627   0.627   0.627   0.627   0.627   0.627   0.627   0.627   0.627   0.627   0.627   0.627   0.627   0.627   0.627   0.627
    17.50    0.627   0.627   0.627   0.627   0.627   0.627   0.627   0.627   0.627   0.627   0.627   0.627   0.627   0.627   0.627   0.627   0.627   0.627   0.627   0.627   0.627   0.627   0.627   0.627   0.627   0.627   0.627   0.627   0.627   0.627   0.627

   Mean standard deviation across all grid points:
      u component:    1.069 m/s
      v component:    0.996 m/s
      w component:    0.627 m/s


U-component (X) statistics from the interpolated hub point:

   Mean =   7.9221 m/s
   TI   =  13.8983 %


Processing complete.  439.7 CPU seconds used.
