
This summary file was generated by TurbSim (v2.00.07a-bjj, 14-Jun-2016) on 15-Feb-2019 at 10:31:12.


Runtime Options:

-672571453  Random seed #1
    RANLUX  Type of random number generator
         F  Output binary HH turbulence parameters?
         F  Output formatted turbulence parameters?
         F  Output AeroDyn HH files?
         T  Output AeroDyn FF files?
         F  Output BLADED FF files?
         T  Output tower data?
         F  Output formatted FF files?
         F  Output coherent turbulence time step file?
         T  Clockwise rotation when looking downwind?
 0 -  NONE  IEC turbulence models scaled to exact specified standard deviation


Turbine/Model Specifications:

        31  Vertical grid-point matrix dimension
        31  Horizontal grid-point matrix dimension
     0.050  Time step [seconds]
   630.000  Analysis time [seconds]
   630.000  Usable output time [seconds]
    90.000  Hub height [m]
   145.000  Grid height [m]
   145.000  Grid width [m]
     0.000  Vertical flow angle [degrees]
     0.000  Horizontal flow angle [degrees]


Meteorological Boundary Conditions:

    IECKAI  IEC Kaimal spectral model
         1  IEC standard: IEC 61400-1 Ed. 3: 2005
         B  IEC turbulence characteristic
       NTM  IEC Normal Turbulence Model
       N/A  IEC Extreme Turbulence Model (ETM) "c" parameter [m/s]
       PL   Wind profile type
    90.000  Reference height [m]
    11.000  Reference wind speed [m/s]
       N/A  Jet height [m]
     0.200  Power law exponent
     0.030  Surface roughness length [m]


Non-IEC Meteorological Boundary Conditions:

       N/A  Site latitude [degrees]
       N/A  Gradient Richardson number
       N/A  Friction or shear velocity [m/s]
       N/A  Mixing layer depth [m]
       N/A  Mean hub u'w' Reynolds stress
       N/A  Mean hub u'v' Reynolds stress
       N/A  Mean hub v'w' Reynolds stress


Spatial Coherence Models:

   GENERAL  u-component coherence model
   GENERAL  v-component coherence model
   GENERAL  w-component coherence model
(   12.000, 0.353E-03)  u-component coherence parameters
(*********,  0.00    )  v-component coherence parameters
(*********,  0.00    )  w-component coherence parameters
     0.000  Coherence exponent


You have requested that the following file(s) be generated:

   11_a.bts (AeroDyn/TurbSim full-field wind file)


Turbulence Simulation Scaling Parameter Summary:

   Turbulence model used                            =  IEC Kaimal
   Turbulence characteristic                        =  B
   IEC turbulence type                              =  Normal Turbulence Model
   IEC standard                                     =  IEC 61400-1 Ed. 3: 2005
   Mean wind speed at hub height                    =   11.000 m/s
   Expected value of turbulence intensity at 15 m/s =   14.000%
   Characteristic value of standard deviation       =    1.939 m/s
   Turbulence scale                                 =   42.000 m
   u-component integral scale                       =  340.200 m
   Coherency scale                                  =  340.200 m
   Characteristic value of hub turbulence intensity =   17.627%
   Gradient Richardson number                       =    0.000

   Wind profile type                                =  Power law
   Power law exponent                               =    0.200
   Mean shear across rotor disk                     =    0.031 (m/s)/m
   Assumed rotor diameter                           =  145.000 m
   Surface roughness length                         =    0.030 m

   Nyquist frequency of turbulent wind field        =   10.000 Hz

   Number of time steps in the FFT                  =    12600
   Number of time steps output                      =    12600
   Number of points simulated                       =      964


Mean Flow Angles:

   Vertical   =   0.0 degrees
   Horizontal =   0.0 degrees

Mean Wind Speed Profile:

   Height    Wind Speed   Horizontal Angle  Vertical Angle  U-comp (X)   V-comp (Y)   W-comp (Z)
     (m)        (m/s)         (degrees)       (degrees)       (m/s)        (m/s)        (m/s)   
   ------    ----------   ----------------  --------------  ----------   ----------   ----------
    162.5       12.38            0.00            0.00         12.38         0.00         0.00
    157.7       12.31            0.00            0.00         12.31         0.00         0.00
    152.8       12.23            0.00            0.00         12.23         0.00         0.00
    148.0       12.15            0.00            0.00         12.15         0.00         0.00
    143.2       12.07            0.00            0.00         12.07         0.00         0.00
    138.3       11.99            0.00            0.00         11.99         0.00         0.00
    133.5       11.90            0.00            0.00         11.90         0.00         0.00
    128.7       11.82            0.00            0.00         11.82         0.00         0.00
    123.8       11.72            0.00            0.00         11.72         0.00         0.00
    119.0       11.63            0.00            0.00         11.63         0.00         0.00
    114.2       11.54            0.00            0.00         11.54         0.00         0.00
    109.3       11.44            0.00            0.00         11.44         0.00         0.00
    104.5       11.33            0.00            0.00         11.33         0.00         0.00
     99.7       11.23            0.00            0.00         11.23         0.00         0.00
     94.8       11.12            0.00            0.00         11.12         0.00         0.00
     90.0       11.00            0.00            0.00         11.00         0.00         0.00
     85.2       10.88            0.00            0.00         10.88         0.00         0.00
     80.3       10.75            0.00            0.00         10.75         0.00         0.00
     75.5       10.62            0.00            0.00         10.62         0.00         0.00
     70.7       10.48            0.00            0.00         10.48         0.00         0.00
     65.8       10.33            0.00            0.00         10.33         0.00         0.00
     61.0       10.18            0.00            0.00         10.18         0.00         0.00
     56.2       10.01            0.00            0.00         10.01         0.00         0.00
     51.3        9.83            0.00            0.00          9.83         0.00         0.00
     46.5        9.64            0.00            0.00          9.64         0.00         0.00
     41.7        9.43            0.00            0.00          9.43         0.00         0.00
     36.8        9.20            0.00            0.00          9.20         0.00         0.00
     32.0        8.94            0.00            0.00          8.94         0.00         0.00
     27.2        8.66            0.00            0.00          8.66         0.00         0.00
     22.3        8.32            0.00            0.00          8.32         0.00         0.00
     17.5        7.93            0.00            0.00          7.93         0.00         0.00
     12.7        7.43            0.00            0.00          7.43         0.00         0.00
      7.8        6.75            0.00            0.00          6.75         0.00         0.00
      3.0        5.57            0.00            0.00          5.57         0.00         0.00


Harvested Random Seeds after Generation of the Random Numbers:

    169290450 K 1
            0 K 2


Hub-Height Simulated Turbulence Statistical Summary:

   Type of Wind        Min (m/s)   Mean (m/s)    Max (m/s)  Sigma (m/s)       TI (%)
   ----------------    ---------   ----------    ---------  -----------       ------
   Longitudinal (u)         5.34        11.00        17.37        1.992       18.110
   Lateral (v)             -5.12        -0.00         5.36        1.515       13.777
   Vertical (w)            -3.57         0.00         3.14        0.948        8.622
   U component              5.34        11.00        17.37        1.992       18.110
   V component             -5.12        -0.00         5.36        1.515       13.777
   W component             -3.57         0.00         3.14        0.948        8.622
   Horizontal (U&V)         5.36        11.10        17.59        2.002       18.028
   Total                    5.44        11.14        17.60        1.997       17.922

                       Min Reynolds     Mean Reynolds    Max Reynolds    Correlation
   Product             Stress (m/s)^2   Stress (m/s)^2   Stress (m/s)^2  Coefficient
   ----------------    --------------   --------------   --------------  -----------
   u'w'                     -9.524             0.076            15.529         0.040
   u'v'                    -11.735             0.599            21.306         0.198
   v'w'                    -11.523             0.057             8.546         0.040


   Friction Velocity (Ustar)  =      0.275 m/s
   Maximum Instantaneous TKE  =     25.452 (m/s)^2
   Maximum Instantaneous CTKE =     10.730 (m/s)^2


Grid Point Variance Summary:

   Y-coord  -72.50  -67.67  -62.83  -58.00  -53.17  -48.33  -43.50  -38.67  -33.83  -29.00  -24.17  -19.33  -14.50   -9.67   -4.83    0.00    4.83    9.67   14.50   19.33   24.17   29.00   33.83   38.67   43.50   48.33   53.17   58.00   62.83   67.67   72.50

   Height   Standard deviation at grid points for the u component:
   162.50    1.598   1.737   1.852   1.936   1.958   1.931   1.863   1.908   1.792   1.861   1.864   1.817   1.865   1.766   1.700   1.629   1.701   1.690   1.562   1.648   1.641   1.663   1.620   1.629   1.642   1.702   1.697   1.578   1.596   1.764   1.748
   157.67    1.613   1.792   1.835   1.897   1.917   1.906   1.886   1.810   1.827   1.812   1.797   1.908   1.814   1.727   1.693   1.670   1.594   1.628   1.558   1.718   1.739   1.687   1.581   1.625   1.685   1.668   1.766   1.775   1.742   1.778   1.798
   152.83    1.660   1.808   1.855   1.951   1.936   1.861   1.909   1.956   1.972   1.962   1.805   1.767   1.845   1.756   1.630   1.649   1.617   1.520   1.517   1.629   1.677   1.631   1.548   1.678   1.682   1.740   1.688   1.766   1.744   1.792   1.699
   148.00    1.778   1.758   1.810   1.818   1.880   1.882   1.917   1.931   1.934   1.836   1.791   1.698   1.826   1.759   1.667   1.682   1.643   1.579   1.464   1.599   1.617   1.601   1.572   1.619   1.743   1.702   1.784   1.849   1.870   1.812   1.720
   143.17    1.746   1.742   1.847   1.902   1.930   1.804   1.861   1.862   1.899   1.804   1.751   1.676   1.813   1.780   1.708   1.645   1.611   1.532   1.560   1.594   1.638   1.578   1.594   1.722   1.787   1.745   1.855   1.906   1.894   1.872   1.910
   138.33    1.933   1.944   1.900   1.844   1.853   1.802   1.743   1.773   1.815   1.765   1.763   1.777   1.709   1.710   1.748   1.695   1.656   1.589   1.548   1.583   1.587   1.554   1.589   1.694   1.846   1.881   1.775   1.911   1.842   1.787   1.843
   133.50    1.779   1.887   1.886   1.798   1.725   1.687   1.612   1.616   1.658   1.703   1.663   1.753   1.686   1.772   1.745   1.681   1.697   1.704   1.538   1.517   1.611   1.663   1.652   1.730   1.812   1.850   1.820   1.877   1.974   1.877   1.756
   128.67    1.818   1.840   1.865   1.738   1.633   1.643   1.518   1.606   1.590   1.555   1.677   1.657   1.675   1.669   1.668   1.693   1.762   1.652   1.627   1.680   1.667   1.689   1.698   1.680   1.817   1.835   1.825   1.894   2.024   1.967   1.795
   123.83    1.765   1.699   1.757   1.647   1.573   1.624   1.555   1.531   1.539   1.566   1.633   1.639   1.563   1.589   1.700   1.716   1.812   1.766   1.806   1.804   1.807   1.845   1.879   1.890   1.796   1.889   1.875   1.881   1.854   1.907   1.735
   119.00    1.657   1.626   1.651   1.617   1.534   1.554   1.580   1.536   1.493   1.615   1.563   1.613   1.622   1.613   1.722   1.852   1.754   1.745   1.912   1.847   1.832   1.878   1.875   1.973   1.945   1.875   1.823   1.894   1.845   1.770   1.805
   114.17    1.564   1.621   1.576   1.527   1.534   1.499   1.591   1.452   1.541   1.537   1.615   1.590   1.639   1.754   1.758   1.809   1.878   1.761   1.849   1.933   1.979   1.919   1.901   1.989   2.026   2.000   1.943   1.826   1.761   1.745   1.738
   109.33    1.589   1.576   1.587   1.539   1.505   1.526   1.540   1.513   1.599   1.645   1.598   1.522   1.683   1.809   1.764   1.868   1.907   1.842   1.885   1.861   1.928   1.914   2.017   2.094   2.131   2.152   1.881   1.724   1.654   1.587   1.650
   104.50    1.662   1.654   1.639   1.562   1.579   1.573   1.578   1.606   1.600   1.670   1.603   1.595   1.694   1.729   1.745   1.853   1.965   1.954   1.819   1.901   1.870   1.861   1.966   2.072   1.984   2.021   1.960   1.840   1.729   1.672   1.609
    99.67    1.745   1.737   1.722   1.672   1.726   1.675   1.547   1.619   1.625   1.681   1.694   1.677   1.695   1.725   1.819   2.025   2.020   1.863   1.811   1.836   1.836   1.976   1.970   1.996   2.057   2.100   1.979   1.950   1.864   1.678   1.625
    94.83    1.868   1.755   1.834   1.775   1.772   1.753   1.654   1.699   1.770   1.779   1.668   1.670   1.780   1.830   1.937   1.950   2.023   1.944   1.809   1.791   1.851   1.931   2.026   2.011   2.033   1.970   1.916   1.840   1.822   1.777   1.744
    90.00    1.844   1.818   1.802   1.776   1.861   1.805   1.800   1.775   1.854   1.833   1.857   1.757   1.822   1.836   1.912   1.992   2.092   1.948   1.972   1.806   1.865   1.951   1.935   1.982   1.950   2.007   1.953   1.995   1.850   1.805   1.914
    85.17    1.783   1.811   1.797   1.772   1.725   1.730   1.753   1.803   1.826   1.866   1.840   1.814   1.793   1.910   1.830   1.999   2.008   1.984   1.974   1.844   1.903   1.864   1.996   1.979   1.949   1.996   1.920   1.970   2.003   1.939   1.915
    80.33    1.818   1.794   1.848   1.690   1.749   1.735   1.682   1.728   1.802   1.795   1.845   1.788   1.814   1.874   1.875   1.944   1.989   2.015   1.930   1.811   1.765   1.807   1.840   1.889   1.932   2.045   2.030   1.982   2.006   2.000   2.006
    75.50    1.851   1.834   1.854   1.714   1.652   1.717   1.839   1.670   1.735   1.783   1.759   1.697   1.739   1.893   1.838   1.888   1.989   1.917   1.879   1.779   1.734   1.791   1.746   1.919   1.894   1.924   2.012   2.014   2.028   1.918   1.935
    70.67    1.862   1.802   1.869   1.881   1.716   1.724   1.827   1.753   1.705   1.712   1.646   1.774   1.824   1.954   1.957   1.879   1.815   1.723   1.759   1.636   1.649   1.781   1.733   1.891   1.939   1.976   2.103   2.005   1.881   1.967   1.981
    65.83    1.818   1.769   1.810   1.899   1.792   1.704   1.832   1.827   1.790   1.584   1.573   1.719   1.859   1.825   1.823   1.790   1.770   1.728   1.728   1.628   1.798   1.799   1.848   1.827   1.935   2.063   2.053   2.025   1.857   1.949   1.903
    61.00    1.846   1.896   1.883   1.932   1.862   1.863   1.807   1.732   1.661   1.600   1.520   1.618   1.793   1.680   1.718   1.753   1.755   1.801   1.720   1.717   1.722   1.768   1.868   1.796   1.913   2.022   1.820   1.819   1.902   1.880   1.947
    56.17    1.871   1.799   1.910   1.929   1.904   1.801   1.848   1.740   1.743   1.590   1.527   1.592   1.718   1.711   1.689   1.807   1.796   1.768   1.763   1.669   1.737   1.769   1.818   1.847   1.840   1.867   1.834   1.888   1.980   1.923   1.931
    51.33    1.808   1.802   1.886   1.931   1.922   1.779   1.859   1.805   1.716   1.597   1.603   1.561   1.614   1.673   1.616   1.708   1.794   1.752   1.681   1.689   1.802   1.798   1.790   1.762   1.785   1.795   1.800   1.941   1.946   2.000   1.973
    46.50    1.724   1.773   1.867   1.980   1.986   1.962   1.862   1.860   1.691   1.657   1.652   1.645   1.656   1.564   1.685   1.837   1.808   1.664   1.605   1.653   1.714   1.771   1.653   1.658   1.718   1.786   1.781   1.893   1.953   1.928   1.874
    41.67    1.757   1.810   1.855   1.968   1.923   1.976   1.911   1.776   1.696   1.688   1.805   1.693   1.620   1.619   1.736   1.844   1.785   1.643   1.558   1.738   1.732   1.710   1.664   1.620   1.668   1.798   1.820   1.912   1.859   1.821   1.838
    36.83    1.742   1.869   1.862   1.874   1.882   1.809   1.950   1.839   1.820   1.749   1.838   1.741   1.671   1.674   1.774   1.908   1.760   1.623   1.727   1.764   1.702   1.729   1.706   1.650   1.638   1.710   1.777   1.901   1.918   1.818   1.896
    32.00    1.862   1.797   1.901   1.914   1.928   1.790   1.910   1.815   1.811   1.881   1.892   1.893   1.703   1.760   1.882   1.944   1.803   1.788   1.734   1.628   1.765   1.848   1.748   1.659   1.615   1.714   1.858   1.840   1.781   1.893   2.030
    27.17    1.857   1.815   1.785   1.855   1.925   1.799   1.801   1.955   1.824   1.876   1.901   1.859   1.789   1.708   1.800   1.795   1.792   1.760   1.675   1.832   1.869   1.883   1.736   1.641   1.774   1.787   1.835   1.770   1.812   1.865   1.903
    22.33    1.866   1.892   1.927   1.919   1.806   1.835   1.824   1.820   1.804   1.796   1.977   1.904   1.806   1.765   1.783   1.800   1.698   1.612   1.734   1.837   1.808   1.848   1.860   1.856   1.812   1.886   1.833   1.800   1.792   1.838   1.964
    17.50    1.843   1.869   1.853   1.845   1.782   1.688   1.711   1.747   1.762   1.761   1.928   1.930   1.868   1.847   1.720   1.817   1.890   1.882   1.784   1.824   1.775   1.836   1.807   1.941   1.897   1.846   1.795   1.736   1.716   1.812   1.868

   Height   Standard deviation at grid points for the v component:
   162.50    1.515   1.515   1.515   1.515   1.515   1.515   1.515   1.515   1.515   1.515   1.515   1.515   1.515   1.515   1.515   1.515   1.515   1.515   1.515   1.515   1.515   1.515   1.515   1.515   1.515   1.515   1.515   1.515   1.515   1.515   1.515
   157.67    1.515   1.515   1.515   1.515   1.515   1.515   1.515   1.515   1.515   1.515   1.515   1.515   1.515   1.515   1.515   1.515   1.515   1.515   1.515   1.515   1.515   1.515   1.515   1.515   1.515   1.515   1.515   1.515   1.515   1.515   1.515
   152.83    1.515   1.515   1.515   1.515   1.515   1.515   1.515   1.515   1.515   1.515   1.515   1.515   1.515   1.515   1.515   1.515   1.515   1.515   1.515   1.515   1.515   1.515   1.515   1.515   1.515   1.515   1.515   1.515   1.515   1.515   1.515
   148.00    1.515   1.515   1.515   1.515   1.515   1.515   1.515   1.515   1.515   1.515   1.515   1.515   1.515   1.515   1.515   1.515   1.515   1.515   1.515   1.515   1.515   1.515   1.515   1.515   1.515   1.515   1.515   1.515   1.515   1.515   1.515
   143.17    1.515   1.515   1.515   1.515   1.515   1.515   1.515   1.515   1.515   1.515   1.515   1.515   1.515   1.515   1.515   1.515   1.515   1.515   1.515   1.515   1.515   1.515   1.515   1.515   1.515   1.515   1.515   1.515   1.515   1.515   1.515
   138.33    1.515   1.515   1.515   1.515   1.515   1.515   1.515   1.515   1.515   1.515   1.515   1.515   1.515   1.515   1.515   1.515   1.515   1.515   1.515   1.515   1.515   1.515   1.515   1.515   1.515   1.515   1.515   1.515   1.515   1.515   1.515
   133.50    1.515   1.515   1.515   1.515   1.515   1.515   1.515   1.515   1.515   1.515   1.515   1.515   1.515   1.515   1.515   1.515   1.515   1.515   1.515   1.515   1.515   1.515   1.515   1.515   1.515   1.515   1.515   1.515   1.515   1.515   1.515
   128.67    1.515   1.515   1.515   1.515   1.515   1.515   1.515   1.515   1.515   1.515   1.515   1.515   1.515   1.515   1.515   1.515   1.515   1.515   1.515   1.515   1.515   1.515   1.515   1.515   1.515   1.515   1.515   1.515   1.515   1.515   1.515
   123.83    1.515   1.515   1.515   1.515   1.515   1.515   1.515   1.515   1.515   1.515   1.515   1.515   1.515   1.515   1.515   1.515   1.515   1.515   1.515   1.515   1.515   1.515   1.515   1.515   1.515   1.515   1.515   1.515   1.515   1.515   1.515
   119.00    1.515   1.515   1.515   1.515   1.515   1.515   1.515   1.515   1.515   1.515   1.515   1.515   1.515   1.515   1.515   1.515   1.515   1.515   1.515   1.515   1.515   1.515   1.515   1.515   1.515   1.515   1.515   1.515   1.515   1.515   1.515
   114.17    1.515   1.515   1.515   1.515   1.515   1.515   1.515   1.515   1.515   1.515   1.515   1.515   1.515   1.515   1.515   1.515   1.515   1.515   1.515   1.515   1.515   1.515   1.515   1.515   1.515   1.515   1.515   1.515   1.515   1.515   1.515
   109.33    1.515   1.515   1.515   1.515   1.515   1.515   1.515   1.515   1.515   1.515   1.515   1.515   1.515   1.515   1.515   1.515   1.515   1.515   1.515   1.515   1.515   1.515   1.515   1.515   1.515   1.515   1.515   1.515   1.515   1.515   1.515
   104.50    1.515   1.515   1.515   1.515   1.515   1.515   1.515   1.515   1.515   1.515   1.515   1.515   1.515   1.515   1.515   1.515   1.515   1.515   1.515   1.515   1.515   1.515   1.515   1.515   1.515   1.515   1.515   1.515   1.515   1.515   1.515
    99.67    1.515   1.515   1.515   1.515   1.515   1.515   1.515   1.515   1.515   1.515   1.515   1.515   1.515   1.515   1.515   1.515   1.515   1.515   1.515   1.515   1.515   1.515   1.515   1.515   1.515   1.515   1.515   1.515   1.515   1.515   1.515
    94.83    1.515   1.515   1.515   1.515   1.515   1.515   1.515   1.515   1.515   1.515   1.515   1.515   1.515   1.515   1.515   1.515   1.515   1.515   1.515   1.515   1.515   1.515   1.515   1.515   1.515   1.515   1.515   1.515   1.515   1.515   1.515
    90.00    1.515   1.515   1.515   1.515   1.515   1.515   1.515   1.515   1.515   1.515   1.515   1.515   1.515   1.515   1.515   1.515   1.515   1.515   1.515   1.515   1.515   1.515   1.515   1.515   1.515   1.515   1.515   1.515   1.515   1.515   1.515
    85.17    1.515   1.515   1.515   1.515   1.515   1.515   1.515   1.515   1.515   1.515   1.515   1.515   1.515   1.515   1.515   1.515   1.515   1.515   1.515   1.515   1.515   1.515   1.515   1.515   1.515   1.515   1.515   1.515   1.515   1.515   1.515
    80.33    1.515   1.515   1.515   1.515   1.515   1.515   1.515   1.515   1.515   1.515   1.515   1.515   1.515   1.515   1.515   1.515   1.515   1.515   1.515   1.515   1.515   1.515   1.515   1.515   1.515   1.515   1.515   1.515   1.515   1.515   1.515
    75.50    1.515   1.515   1.515   1.515   1.515   1.515   1.515   1.515   1.515   1.515   1.515   1.515   1.515   1.515   1.515   1.515   1.515   1.515   1.515   1.515   1.515   1.515   1.515   1.515   1.515   1.515   1.515   1.515   1.515   1.515   1.515
    70.67    1.515   1.515   1.515   1.515   1.515   1.515   1.515   1.515   1.515   1.515   1.515   1.515   1.515   1.515   1.515   1.515   1.515   1.515   1.515   1.515   1.515   1.515   1.515   1.515   1.515   1.515   1.515   1.515   1.515   1.515   1.515
    65.83    1.515   1.515   1.515   1.515   1.515   1.515   1.515   1.515   1.515   1.515   1.515   1.515   1.515   1.515   1.515   1.515   1.515   1.515   1.515   1.515   1.515   1.515   1.515   1.515   1.515   1.515   1.515   1.515   1.515   1.515   1.515
    61.00    1.515   1.515   1.515   1.515   1.515   1.515   1.515   1.515   1.515   1.515   1.515   1.515   1.515   1.515   1.515   1.515   1.515   1.515   1.515   1.515   1.515   1.515   1.515   1.515   1.515   1.515   1.515   1.515   1.515   1.515   1.515
    56.17    1.515   1.515   1.515   1.515   1.515   1.515   1.515   1.515   1.515   1.515   1.515   1.515   1.515   1.515   1.515   1.515   1.515   1.515   1.515   1.515   1.515   1.515   1.515   1.515   1.515   1.515   1.515   1.515   1.515   1.515   1.515
    51.33    1.515   1.515   1.515   1.515   1.515   1.515   1.515   1.515   1.515   1.515   1.515   1.515   1.515   1.515   1.515   1.515   1.515   1.515   1.515   1.515   1.515   1.515   1.515   1.515   1.515   1.515   1.515   1.515   1.515   1.515   1.515
    46.50    1.515   1.515   1.515   1.515   1.515   1.515   1.515   1.515   1.515   1.515   1.515   1.515   1.515   1.515   1.515   1.515   1.515   1.515   1.515   1.515   1.515   1.515   1.515   1.515   1.515   1.515   1.515   1.515   1.515   1.515   1.515
    41.67    1.515   1.515   1.515   1.515   1.515   1.515   1.515   1.515   1.515   1.515   1.515   1.515   1.515   1.515   1.515   1.515   1.515   1.515   1.515   1.515   1.515   1.515   1.515   1.515   1.515   1.515   1.515   1.515   1.515   1.515   1.515
    36.83    1.515   1.515   1.515   1.515   1.515   1.515   1.515   1.515   1.515   1.515   1.515   1.515   1.515   1.515   1.515   1.515   1.515   1.515   1.515   1.515   1.515   1.515   1.515   1.515   1.515   1.515   1.515   1.515   1.515   1.515   1.515
    32.00    1.515   1.515   1.515   1.515   1.515   1.515   1.515   1.515   1.515   1.515   1.515   1.515   1.515   1.515   1.515   1.515   1.515   1.515   1.515   1.515   1.515   1.515   1.515   1.515   1.515   1.515   1.515   1.515   1.515   1.515   1.515
    27.17    1.515   1.515   1.515   1.515   1.515   1.515   1.515   1.515   1.515   1.515   1.515   1.515   1.515   1.515   1.515   1.515   1.515   1.515   1.515   1.515   1.515   1.515   1.515   1.515   1.515   1.515   1.515   1.515   1.515   1.515   1.515
    22.33    1.515   1.515   1.515   1.515   1.515   1.515   1.515   1.515   1.515   1.515   1.515   1.515   1.515   1.515   1.515   1.515   1.515   1.515   1.515   1.515   1.515   1.515   1.515   1.515   1.515   1.515   1.515   1.515   1.515   1.515   1.515
    17.50    1.515   1.515   1.515   1.515   1.515   1.515   1.515   1.515   1.515   1.515   1.515   1.515   1.515   1.515   1.515   1.515   1.515   1.515   1.515   1.515   1.515   1.515   1.515   1.515   1.515   1.515   1.515   1.515   1.515   1.515   1.515

   Height   Standard deviation at grid points for the w component:
   162.50    0.948   0.948   0.948   0.948   0.948   0.948   0.948   0.948   0.948   0.948   0.948   0.948   0.948   0.948   0.948   0.948   0.948   0.948   0.948   0.948   0.948   0.948   0.948   0.948   0.948   0.948   0.948   0.948   0.948   0.948   0.948
   157.67    0.948   0.948   0.948   0.948   0.948   0.948   0.948   0.948   0.948   0.948   0.948   0.948   0.948   0.948   0.948   0.948   0.948   0.948   0.948   0.948   0.948   0.948   0.948   0.948   0.948   0.948   0.948   0.948   0.948   0.948   0.948
   152.83    0.948   0.948   0.948   0.948   0.948   0.948   0.948   0.948   0.948   0.948   0.948   0.948   0.948   0.948   0.948   0.948   0.948   0.948   0.948   0.948   0.948   0.948   0.948   0.948   0.948   0.948   0.948   0.948   0.948   0.948   0.948
   148.00    0.948   0.948   0.948   0.948   0.948   0.948   0.948   0.948   0.948   0.948   0.948   0.948   0.948   0.948   0.948   0.948   0.948   0.948   0.948   0.948   0.948   0.948   0.948   0.948   0.948   0.948   0.948   0.948   0.948   0.948   0.948
   143.17    0.948   0.948   0.948   0.948   0.948   0.948   0.948   0.948   0.948   0.948   0.948   0.948   0.948   0.948   0.948   0.948   0.948   0.948   0.948   0.948   0.948   0.948   0.948   0.948   0.948   0.948   0.948   0.948   0.948   0.948   0.948
   138.33    0.948   0.948   0.948   0.948   0.948   0.948   0.948   0.948   0.948   0.948   0.948   0.948   0.948   0.948   0.948   0.948   0.948   0.948   0.948   0.948   0.948   0.948   0.948   0.948   0.948   0.948   0.948   0.948   0.948   0.948   0.948
   133.50    0.948   0.948   0.948   0.948   0.948   0.948   0.948   0.948   0.948   0.948   0.948   0.948   0.948   0.948   0.948   0.948   0.948   0.948   0.948   0.948   0.948   0.948   0.948   0.948   0.948   0.948   0.948   0.948   0.948   0.948   0.948
   128.67    0.948   0.948   0.948   0.948   0.948   0.948   0.948   0.948   0.948   0.948   0.948   0.948   0.948   0.948   0.948   0.948   0.948   0.948   0.948   0.948   0.948   0.948   0.948   0.948   0.948   0.948   0.948   0.948   0.948   0.948   0.948
   123.83    0.948   0.948   0.948   0.948   0.948   0.948   0.948   0.948   0.948   0.948   0.948   0.948   0.948   0.948   0.948   0.948   0.948   0.948   0.948   0.948   0.948   0.948   0.948   0.948   0.948   0.948   0.948   0.948   0.948   0.948   0.948
   119.00    0.948   0.948   0.948   0.948   0.948   0.948   0.948   0.948   0.948   0.948   0.948   0.948   0.948   0.948   0.948   0.948   0.948   0.948   0.948   0.948   0.948   0.948   0.948   0.948   0.948   0.948   0.948   0.948   0.948   0.948   0.948
   114.17    0.948   0.948   0.948   0.948   0.948   0.948   0.948   0.948   0.948   0.948   0.948   0.948   0.948   0.948   0.948   0.948   0.948   0.948   0.948   0.948   0.948   0.948   0.948   0.948   0.948   0.948   0.948   0.948   0.948   0.948   0.948
   109.33    0.948   0.948   0.948   0.948   0.948   0.948   0.948   0.948   0.948   0.948   0.948   0.948   0.948   0.948   0.948   0.948   0.948   0.948   0.948   0.948   0.948   0.948   0.948   0.948   0.948   0.948   0.948   0.948   0.948   0.948   0.948
   104.50    0.948   0.948   0.948   0.948   0.948   0.948   0.948   0.948   0.948   0.948   0.948   0.948   0.948   0.948   0.948   0.948   0.948   0.948   0.948   0.948   0.948   0.948   0.948   0.948   0.948   0.948   0.948   0.948   0.948   0.948   0.948
    99.67    0.948   0.948   0.948   0.948   0.948   0.948   0.948   0.948   0.948   0.948   0.948   0.948   0.948   0.948   0.948   0.948   0.948   0.948   0.948   0.948   0.948   0.948   0.948   0.948   0.948   0.948   0.948   0.948   0.948   0.948   0.948
    94.83    0.948   0.948   0.948   0.948   0.948   0.948   0.948   0.948   0.948   0.948   0.948   0.948   0.948   0.948   0.948   0.948   0.948   0.948   0.948   0.948   0.948   0.948   0.948   0.948   0.948   0.948   0.948   0.948   0.948   0.948   0.948
    90.00    0.948   0.948   0.948   0.948   0.948   0.948   0.948   0.948   0.948   0.948   0.948   0.948   0.948   0.948   0.948   0.948   0.948   0.948   0.948   0.948   0.948   0.948   0.948   0.948   0.948   0.948   0.948   0.948   0.948   0.948   0.948
    85.17    0.948   0.948   0.948   0.948   0.948   0.948   0.948   0.948   0.948   0.948   0.948   0.948   0.948   0.948   0.948   0.948   0.948   0.948   0.948   0.948   0.948   0.948   0.948   0.948   0.948   0.948   0.948   0.948   0.948   0.948   0.948
    80.33    0.948   0.948   0.948   0.948   0.948   0.948   0.948   0.948   0.948   0.948   0.948   0.948   0.948   0.948   0.948   0.948   0.948   0.948   0.948   0.948   0.948   0.948   0.948   0.948   0.948   0.948   0.948   0.948   0.948   0.948   0.948
    75.50    0.948   0.948   0.948   0.948   0.948   0.948   0.948   0.948   0.948   0.948   0.948   0.948   0.948   0.948   0.948   0.948   0.948   0.948   0.948   0.948   0.948   0.948   0.948   0.948   0.948   0.948   0.948   0.948   0.948   0.948   0.948
    70.67    0.948   0.948   0.948   0.948   0.948   0.948   0.948   0.948   0.948   0.948   0.948   0.948   0.948   0.948   0.948   0.948   0.948   0.948   0.948   0.948   0.948   0.948   0.948   0.948   0.948   0.948   0.948   0.948   0.948   0.948   0.948
    65.83    0.948   0.948   0.948   0.948   0.948   0.948   0.948   0.948   0.948   0.948   0.948   0.948   0.948   0.948   0.948   0.948   0.948   0.948   0.948   0.948   0.948   0.948   0.948   0.948   0.948   0.948   0.948   0.948   0.948   0.948   0.948
    61.00    0.948   0.948   0.948   0.948   0.948   0.948   0.948   0.948   0.948   0.948   0.948   0.948   0.948   0.948   0.948   0.948   0.948   0.948   0.948   0.948   0.948   0.948   0.948   0.948   0.948   0.948   0.948   0.948   0.948   0.948   0.948
    56.17    0.948   0.948   0.948   0.948   0.948   0.948   0.948   0.948   0.948   0.948   0.948   0.948   0.948   0.948   0.948   0.948   0.948   0.948   0.948   0.948   0.948   0.948   0.948   0.948   0.948   0.948   0.948   0.948   0.948   0.948   0.948
    51.33    0.948   0.948   0.948   0.948   0.948   0.948   0.948   0.948   0.948   0.948   0.948   0.948   0.948   0.948   0.948   0.948   0.948   0.948   0.948   0.948   0.948   0.948   0.948   0.948   0.948   0.948   0.948   0.948   0.948   0.948   0.948
    46.50    0.948   0.948   0.948   0.948   0.948   0.948   0.948   0.948   0.948   0.948   0.948   0.948   0.948   0.948   0.948   0.948   0.948   0.948   0.948   0.948   0.948   0.948   0.948   0.948   0.948   0.948   0.948   0.948   0.948   0.948   0.948
    41.67    0.948   0.948   0.948   0.948   0.948   0.948   0.948   0.948   0.948   0.948   0.948   0.948   0.948   0.948   0.948   0.948   0.948   0.948   0.948   0.948   0.948   0.948   0.948   0.948   0.948   0.948   0.948   0.948   0.948   0.948   0.948
    36.83    0.948   0.948   0.948   0.948   0.948   0.948   0.948   0.948   0.948   0.948   0.948   0.948   0.948   0.948   0.948   0.948   0.948   0.948   0.948   0.948   0.948   0.948   0.948   0.948   0.948   0.948   0.948   0.948   0.948   0.948   0.948
    32.00    0.948   0.948   0.948   0.948   0.948   0.948   0.948   0.948   0.948   0.948   0.948   0.948   0.948   0.948   0.948   0.948   0.948   0.948   0.948   0.948   0.948   0.948   0.948   0.948   0.948   0.948   0.948   0.948   0.948   0.948   0.948
    27.17    0.948   0.948   0.948   0.948   0.948   0.948   0.948   0.948   0.948   0.948   0.948   0.948   0.948   0.948   0.948   0.948   0.948   0.948   0.948   0.948   0.948   0.948   0.948   0.948   0.948   0.948   0.948   0.948   0.948   0.948   0.948
    22.33    0.948   0.948   0.948   0.948   0.948   0.948   0.948   0.948   0.948   0.948   0.948   0.948   0.948   0.948   0.948   0.948   0.948   0.948   0.948   0.948   0.948   0.948   0.948   0.948   0.948   0.948   0.948   0.948   0.948   0.948   0.948
    17.50    0.948   0.948   0.948   0.948   0.948   0.948   0.948   0.948   0.948   0.948   0.948   0.948   0.948   0.948   0.948   0.948   0.948   0.948   0.948   0.948   0.948   0.948   0.948   0.948   0.948   0.948   0.948   0.948   0.948   0.948   0.948

   Mean standard deviation across all grid points:
      u component:    1.787 m/s
      v component:    1.515 m/s
      w component:    0.948 m/s


U-component (X) statistics from the interpolated hub point:

   Mean =  11.0000 m/s
   TI   =  18.1103 %


Processing complete.  182.08 CPU seconds used.
