
This summary file was generated by TurbSim (v2.00.07a-bjj, 14-Jun-2016) on 15-Feb-2019 at 10:34:15.


Runtime Options:

1586455524  Random seed #1
    RANLUX  Type of random number generator
         F  Output binary HH turbulence parameters?
         F  Output formatted turbulence parameters?
         F  Output AeroDyn HH files?
         T  Output AeroDyn FF files?
         F  Output BLADED FF files?
         T  Output tower data?
         F  Output formatted FF files?
         F  Output coherent turbulence time step file?
         T  Clockwise rotation when looking downwind?
 0 -  NONE  IEC turbulence models scaled to exact specified standard deviation


Turbine/Model Specifications:

        31  Vertical grid-point matrix dimension
        31  Horizontal grid-point matrix dimension
     0.050  Time step [seconds]
   630.000  Analysis time [seconds]
   630.000  Usable output time [seconds]
    90.000  Hub height [m]
   145.000  Grid height [m]
   145.000  Grid width [m]
     0.000  Vertical flow angle [degrees]
     0.000  Horizontal flow angle [degrees]


Meteorological Boundary Conditions:

    IECKAI  IEC Kaimal spectral model
         1  IEC standard: IEC 61400-1 Ed. 3: 2005
         B  IEC turbulence characteristic
       NTM  IEC Normal Turbulence Model
       N/A  IEC Extreme Turbulence Model (ETM) "c" parameter [m/s]
       PL   Wind profile type
    90.000  Reference height [m]
    11.000  Reference wind speed [m/s]
       N/A  Jet height [m]
     0.200  Power law exponent
     0.030  Surface roughness length [m]


Non-IEC Meteorological Boundary Conditions:

       N/A  Site latitude [degrees]
       N/A  Gradient Richardson number
       N/A  Friction or shear velocity [m/s]
       N/A  Mixing layer depth [m]
       N/A  Mean hub u'w' Reynolds stress
       N/A  Mean hub u'v' Reynolds stress
       N/A  Mean hub v'w' Reynolds stress


Spatial Coherence Models:

   GENERAL  u-component coherence model
   GENERAL  v-component coherence model
   GENERAL  w-component coherence model
(   12.000, 0.353E-03)  u-component coherence parameters
(*********,  0.00    )  v-component coherence parameters
(*********,  0.00    )  w-component coherence parameters
     0.000  Coherence exponent


You have requested that the following file(s) be generated:

   11_b.bts (AeroDyn/TurbSim full-field wind file)


Turbulence Simulation Scaling Parameter Summary:

   Turbulence model used                            =  IEC Kaimal
   Turbulence characteristic                        =  B
   IEC turbulence type                              =  Normal Turbulence Model
   IEC standard                                     =  IEC 61400-1 Ed. 3: 2005
   Mean wind speed at hub height                    =   11.000 m/s
   Expected value of turbulence intensity at 15 m/s =   14.000%
   Characteristic value of standard deviation       =    1.939 m/s
   Turbulence scale                                 =   42.000 m
   u-component integral scale                       =  340.200 m
   Coherency scale                                  =  340.200 m
   Characteristic value of hub turbulence intensity =   17.627%
   Gradient Richardson number                       =    0.000

   Wind profile type                                =  Power law
   Power law exponent                               =    0.200
   Mean shear across rotor disk                     =    0.031 (m/s)/m
   Assumed rotor diameter                           =  145.000 m
   Surface roughness length                         =    0.030 m

   Nyquist frequency of turbulent wind field        =   10.000 Hz

   Number of time steps in the FFT                  =    12600
   Number of time steps output                      =    12600
   Number of points simulated                       =      964


Mean Flow Angles:

   Vertical   =   0.0 degrees
   Horizontal =   0.0 degrees

Mean Wind Speed Profile:

   Height    Wind Speed   Horizontal Angle  Vertical Angle  U-comp (X)   V-comp (Y)   W-comp (Z)
     (m)        (m/s)         (degrees)       (degrees)       (m/s)        (m/s)        (m/s)   
   ------    ----------   ----------------  --------------  ----------   ----------   ----------
    162.5       12.38            0.00            0.00         12.38         0.00         0.00
    157.7       12.31            0.00            0.00         12.31         0.00         0.00
    152.8       12.23            0.00            0.00         12.23         0.00         0.00
    148.0       12.15            0.00            0.00         12.15         0.00         0.00
    143.2       12.07            0.00            0.00         12.07         0.00         0.00
    138.3       11.99            0.00            0.00         11.99         0.00         0.00
    133.5       11.90            0.00            0.00         11.90         0.00         0.00
    128.7       11.82            0.00            0.00         11.82         0.00         0.00
    123.8       11.72            0.00            0.00         11.72         0.00         0.00
    119.0       11.63            0.00            0.00         11.63         0.00         0.00
    114.2       11.54            0.00            0.00         11.54         0.00         0.00
    109.3       11.44            0.00            0.00         11.44         0.00         0.00
    104.5       11.33            0.00            0.00         11.33         0.00         0.00
     99.7       11.23            0.00            0.00         11.23         0.00         0.00
     94.8       11.12            0.00            0.00         11.12         0.00         0.00
     90.0       11.00            0.00            0.00         11.00         0.00         0.00
     85.2       10.88            0.00            0.00         10.88         0.00         0.00
     80.3       10.75            0.00            0.00         10.75         0.00         0.00
     75.5       10.62            0.00            0.00         10.62         0.00         0.00
     70.7       10.48            0.00            0.00         10.48         0.00         0.00
     65.8       10.33            0.00            0.00         10.33         0.00         0.00
     61.0       10.18            0.00            0.00         10.18         0.00         0.00
     56.2       10.01            0.00            0.00         10.01         0.00         0.00
     51.3        9.83            0.00            0.00          9.83         0.00         0.00
     46.5        9.64            0.00            0.00          9.64         0.00         0.00
     41.7        9.43            0.00            0.00          9.43         0.00         0.00
     36.8        9.20            0.00            0.00          9.20         0.00         0.00
     32.0        8.94            0.00            0.00          8.94         0.00         0.00
     27.2        8.66            0.00            0.00          8.66         0.00         0.00
     22.3        8.32            0.00            0.00          8.32         0.00         0.00
     17.5        7.93            0.00            0.00          7.93         0.00         0.00
     12.7        7.43            0.00            0.00          7.43         0.00         0.00
      7.8        6.75            0.00            0.00          6.75         0.00         0.00
      3.0        5.57            0.00            0.00          5.57         0.00         0.00


Harvested Random Seeds after Generation of the Random Numbers:

    169290450 K 1
            0 K 2


Hub-Height Simulated Turbulence Statistical Summary:

   Type of Wind        Min (m/s)   Mean (m/s)    Max (m/s)  Sigma (m/s)       TI (%)
   ----------------    ---------   ----------    ---------  -----------       ------
   Longitudinal (u)         3.27        11.00        17.30        2.145       19.503
   Lateral (v)             -4.64         0.00         5.72        1.515       13.777
   Vertical (w)            -3.66        -0.00         4.19        0.948        8.622
   U component              3.27        11.00        17.30        2.145       19.503
   V component             -4.64         0.00         5.72        1.515       13.777
   W component             -3.66        -0.00         4.19        0.948        8.622
   Horizontal (U&V)         3.74        11.11        17.32        2.138       19.250
   Total                    3.83        11.15        17.32        2.124       19.054

                       Min Reynolds     Mean Reynolds    Max Reynolds    Correlation
   Product             Stress (m/s)^2   Stress (m/s)^2   Stress (m/s)^2  Coefficient
   ----------------    --------------   --------------   --------------  -----------
   u'w'                     -8.261             0.339            14.093         0.167
   u'v'                    -24.491            -1.046            12.771        -0.322
   v'w'                     -8.711            -0.034             7.755        -0.024


   Friction Velocity (Ustar)  =      0.582 m/s
   Maximum Instantaneous TKE  =     32.985 (m/s)^2
   Maximum Instantaneous CTKE =     13.714 (m/s)^2


Grid Point Variance Summary:

   Y-coord  -72.50  -67.67  -62.83  -58.00  -53.17  -48.33  -43.50  -38.67  -33.83  -29.00  -24.17  -19.33  -14.50   -9.67   -4.83    0.00    4.83    9.67   14.50   19.33   24.17   29.00   33.83   38.67   43.50   48.33   53.17   58.00   62.83   67.67   72.50

   Height   Standard deviation at grid points for the u component:
   162.50    1.660   1.676   1.671   1.762   1.707   1.706   1.838   1.872   1.777   1.813   1.840   1.700   1.699   1.727   1.633   1.753   1.841   1.988   1.968   1.868   1.821   1.763   1.683   1.780   1.789   1.699   1.819   1.855   2.000   1.958   2.030
   157.67    1.691   1.687   1.771   1.762   1.676   1.752   1.893   1.926   1.885   1.906   1.747   1.652   1.674   1.739   1.712   1.694   1.769   1.842   1.938   1.891   1.860   1.847   1.866   1.876   1.825   1.810   1.788   1.913   1.879   1.908   2.003
   152.83    1.828   1.823   1.859   1.811   1.823   1.842   1.866   1.816   1.837   1.853   1.805   1.770   1.699   1.826   1.656   1.732   1.746   1.814   1.864   1.905   1.918   1.931   1.837   1.858   1.887   1.827   1.904   1.968   1.853   1.877   1.977
   148.00    1.821   1.859   1.954   1.977   1.898   1.900   1.911   1.915   1.861   1.876   1.861   1.776   1.701   1.713   1.739   1.733   1.823   1.870   2.056   2.019   2.102   1.945   1.985   1.862   1.924   1.850   1.843   1.891   1.854   1.959   2.030
   143.17    1.750   1.889   1.987   1.951   2.049   1.968   1.951   1.907   1.939   1.807   1.859   1.842   1.726   1.714   1.648   1.729   1.815   1.938   2.128   2.135   2.127   2.083   2.156   2.052   1.943   1.953   2.056   1.967   1.995   2.088   2.007
   138.33    1.835   1.915   1.880   1.871   1.929   1.936   1.920   1.933   1.942   1.941   1.755   1.749   1.734   1.637   1.621   1.717   1.888   1.932   2.071   2.057   2.075   2.211   2.061   2.017   2.027   2.104   2.047   2.051   2.165   2.137   2.104
   133.50    1.880   1.914   1.816   1.775   1.900   1.930   1.936   1.953   1.953   2.007   1.936   1.819   1.750   1.658   1.660   1.766   1.811   1.800   1.951   2.064   2.076   2.121   2.195   2.106   2.174   2.202   1.995   2.078   2.129   2.166   2.095
   128.67    1.903   1.894   1.869   1.913   1.879   1.909   1.927   1.997   2.017   2.107   2.134   2.002   1.838   1.829   1.756   1.744   1.827   1.844   1.890   1.994   2.058   2.187   2.235   2.224   2.195   2.118   2.026   2.032   2.080   2.093   2.105
   123.83    1.803   1.812   1.868   1.929   1.831   1.835   1.948   2.004   2.155   2.171   2.214   2.088   1.982   1.921   1.769   1.808   1.874   1.942   1.933   1.831   2.043   2.030   2.220   2.317   2.215   2.158   2.117   1.975   1.937   1.970   2.072
   119.00    1.799   1.750   1.769   1.733   1.808   1.843   1.913   2.044   2.151   2.157   2.185   2.227   2.148   1.988   1.827   1.840   1.893   1.933   1.906   1.922   1.905   2.026   2.196   2.286   2.152   2.101   2.110   2.035   1.939   1.934   2.109
   114.17    1.850   1.721   1.739   1.771   1.803   1.951   2.036   1.972   2.036   2.112   2.219   2.259   2.294   1.931   1.900   1.717   1.761   1.852   1.980   1.955   1.943   1.898   2.130   2.182   2.142   2.142   2.058   1.954   1.883   1.966   1.975
   109.33    1.893   1.757   1.715   1.796   1.825   1.850   1.999   1.916   2.137   2.099   2.194   2.169   2.082   1.995   1.879   1.838   1.720   1.693   1.885   1.860   1.920   1.934   2.078   2.100   1.999   2.062   2.054   1.826   1.899   1.964   1.880
   104.50    1.822   1.830   1.886   1.939   1.946   1.958   1.920   2.042   2.060   2.092   2.224   2.157   1.990   1.930   2.011   1.884   1.720   1.791   1.842   1.860   1.946   1.831   2.005   2.026   1.934   2.005   1.968   1.838   1.882   1.920   1.920
    99.67    1.789   1.813   1.863   1.921   1.897   1.919   1.943   2.078   2.092   2.112   2.189   2.197   2.132   2.031   1.939   1.875   1.887   1.827   1.870   1.957   1.980   1.928   1.895   2.005   1.898   1.852   1.907   1.859   1.851   1.819   1.816
    94.83    1.870   1.972   1.972   1.825   1.891   1.832   1.984   1.998   2.043   2.103   2.221   2.190   2.132   2.083   2.000   2.047   1.968   1.971   1.880   1.980   1.944   1.876   1.789   1.870   1.997   1.947   1.979   1.810   1.942   1.910   1.930
    90.00    1.860   2.035   1.988   1.953   1.944   2.011   2.025   2.005   2.115   2.037   2.115   2.135   2.133   2.182   2.114   2.145   1.982   1.908   1.928   1.928   1.929   1.869   1.720   1.710   1.924   1.940   1.839   1.892   2.007   1.982   2.072
    85.17    1.965   2.127   2.146   2.063   1.984   2.074   2.133   2.166   2.083   2.075   2.066   2.164   2.153   2.171   2.171   2.164   2.081   1.849   1.908   1.886   1.888   1.870   1.773   1.802   1.770   1.888   1.798   1.949   1.945   1.983   2.060
    80.33    1.993   2.050   2.178   2.051   2.053   2.247   2.284   2.312   2.145   2.096   2.135   2.068   2.059   2.148   2.120   2.203   2.025   1.825   1.773   1.761   1.756   1.861   1.803   1.820   1.709   1.778   1.935   1.998   1.893   1.898   1.943
    75.50    1.954   2.019   2.148   2.145   2.245   2.311   2.245   2.138   2.102   2.142   2.158   2.078   2.094   2.086   2.096   2.169   2.032   1.875   1.731   1.842   1.750   1.801   1.809   1.730   1.861   1.870   1.937   2.043   1.975   1.883   1.947
    70.67    1.930   2.005   2.111   2.143   2.222   2.325   2.199   2.044   2.164   2.116   1.995   1.995   2.054   2.102   2.160   2.117   2.035   1.949   1.807   1.834   1.678   1.724   1.737   1.811   1.856   1.925   1.868   2.023   2.066   1.897   1.858
    65.83    1.949   2.032   2.046   2.152   2.244   2.268   2.264   2.112   2.037   2.098   2.127   2.001   1.980   2.102   2.092   2.083   1.983   2.049   1.806   1.810   1.775   1.699   1.905   1.921   1.977   2.039   1.897   2.063   2.046   1.893   1.948
    61.00    1.774   1.887   2.078   2.174   2.143   2.192   2.109   2.020   2.037   2.002   2.002   2.074   2.053   2.063   1.986   2.048   2.001   1.948   1.939   1.884   1.807   1.904   1.899   1.872   1.973   1.923   1.914   1.933   1.878   1.977   2.042
    56.17    1.725   1.887   2.005   2.109   2.117   2.068   1.921   1.921   1.990   1.956   2.015   2.056   2.099   2.081   1.917   1.852   2.046   1.999   2.049   1.992   1.872   1.956   1.980   2.026   1.906   1.975   1.980   1.892   2.068   2.047   2.052
    51.33    1.829   1.939   2.080   2.043   2.030   2.092   1.949   1.989   2.054   2.056   2.082   2.059   2.075   2.103   2.056   2.002   2.003   2.029   2.013   1.921   1.911   1.880   2.006   1.994   1.991   1.871   1.924   1.878   2.034   1.987   2.016
    46.50    1.854   1.962   2.015   1.955   1.984   2.013   2.054   2.015   2.013   2.079   2.028   2.138   2.008   2.039   2.087   2.163   2.103   1.985   1.910   1.893   1.872   1.815   1.960   2.017   1.946   1.869   1.895   1.975   2.003   2.054   2.064
    41.67    1.846   1.938   1.997   1.917   1.993   1.989   1.974   2.015   1.939   2.146   2.116   2.045   2.023   2.014   2.020   2.113   2.054   2.043   2.049   1.893   1.905   1.986   1.951   1.989   1.961   1.953   1.873   1.918   1.872   2.019   2.049
    36.83    1.860   1.847   1.860   1.848   1.878   1.897   1.963   1.968   1.936   1.976   1.944   1.918   1.976   1.905   1.885   1.986   2.120   2.057   2.060   1.972   2.032   1.942   1.969   1.962   1.987   1.894   1.924   1.866   1.847   1.913   2.113
    32.00    1.759   1.736   1.825   1.922   1.883   1.913   2.017   1.887   1.757   1.763   1.885   1.945   1.881   1.866   1.862   1.967   1.987   2.045   2.094   2.085   2.067   2.023   1.946   2.028   2.140   2.003   2.124   2.069   2.050   2.043   2.067
    27.17    1.875   1.757   1.833   1.936   1.935   1.910   1.913   1.924   1.922   1.858   1.906   1.889   1.936   1.911   1.769   1.896   1.946   1.979   2.118   2.179   2.116   2.238   2.163   2.046   2.134   2.027   2.051   2.092   2.002   2.012   2.069
    22.33    1.842   1.868   1.729   1.924   1.963   1.974   1.971   1.923   2.041   1.902   1.924   1.910   1.932   1.937   1.838   1.849   1.932   1.978   2.045   2.214   2.170   2.264   2.186   2.214   2.169   2.114   2.150   2.138   2.039   2.030   1.983
    17.50    1.843   1.785   1.783   1.935   2.026   2.032   2.125   2.145   2.079   2.016   1.986   1.956   1.932   1.947   1.909   1.976   1.995   2.034   2.097   2.179   2.263   2.311   2.281   2.244   2.174   2.217   2.128   2.086   2.119   2.034   1.942

   Height   Standard deviation at grid points for the v component:
   162.50    1.515   1.515   1.515   1.515   1.515   1.515   1.515   1.515   1.515   1.515   1.515   1.515   1.515   1.515   1.515   1.515   1.515   1.515   1.515   1.515   1.515   1.515   1.515   1.515   1.515   1.515   1.515   1.515   1.515   1.515   1.515
   157.67    1.515   1.515   1.515   1.515   1.515   1.515   1.515   1.515   1.515   1.515   1.515   1.515   1.515   1.515   1.515   1.515   1.515   1.515   1.515   1.515   1.515   1.515   1.515   1.515   1.515   1.515   1.515   1.515   1.515   1.515   1.515
   152.83    1.515   1.515   1.515   1.515   1.515   1.515   1.515   1.515   1.515   1.515   1.515   1.515   1.515   1.515   1.515   1.515   1.515   1.515   1.515   1.515   1.515   1.515   1.515   1.515   1.515   1.515   1.515   1.515   1.515   1.515   1.515
   148.00    1.515   1.515   1.515   1.515   1.515   1.515   1.515   1.515   1.515   1.515   1.515   1.515   1.515   1.515   1.515   1.515   1.515   1.515   1.515   1.515   1.515   1.515   1.515   1.515   1.515   1.515   1.515   1.515   1.515   1.515   1.515
   143.17    1.515   1.515   1.515   1.515   1.515   1.515   1.515   1.515   1.515   1.515   1.515   1.515   1.515   1.515   1.515   1.515   1.515   1.515   1.515   1.515   1.515   1.515   1.515   1.515   1.515   1.515   1.515   1.515   1.515   1.515   1.515
   138.33    1.515   1.515   1.515   1.515   1.515   1.515   1.515   1.515   1.515   1.515   1.515   1.515   1.515   1.515   1.515   1.515   1.515   1.515   1.515   1.515   1.515   1.515   1.515   1.515   1.515   1.515   1.515   1.515   1.515   1.515   1.515
   133.50    1.515   1.515   1.515   1.515   1.515   1.515   1.515   1.515   1.515   1.515   1.515   1.515   1.515   1.515   1.515   1.515   1.515   1.515   1.515   1.515   1.515   1.515   1.515   1.515   1.515   1.515   1.515   1.515   1.515   1.515   1.515
   128.67    1.515   1.515   1.515   1.515   1.515   1.515   1.515   1.515   1.515   1.515   1.515   1.515   1.515   1.515   1.515   1.515   1.515   1.515   1.515   1.515   1.515   1.515   1.515   1.515   1.515   1.515   1.515   1.515   1.515   1.515   1.515
   123.83    1.515   1.515   1.515   1.515   1.515   1.515   1.515   1.515   1.515   1.515   1.515   1.515   1.515   1.515   1.515   1.515   1.515   1.515   1.515   1.515   1.515   1.515   1.515   1.515   1.515   1.515   1.515   1.515   1.515   1.515   1.515
   119.00    1.515   1.515   1.515   1.515   1.515   1.515   1.515   1.515   1.515   1.515   1.515   1.515   1.515   1.515   1.515   1.515   1.515   1.515   1.515   1.515   1.515   1.515   1.515   1.515   1.515   1.515   1.515   1.515   1.515   1.515   1.515
   114.17    1.515   1.515   1.515   1.515   1.515   1.515   1.515   1.515   1.515   1.515   1.515   1.515   1.515   1.515   1.515   1.515   1.515   1.515   1.515   1.515   1.515   1.515   1.515   1.515   1.515   1.515   1.515   1.515   1.515   1.515   1.515
   109.33    1.515   1.515   1.515   1.515   1.515   1.515   1.515   1.515   1.515   1.515   1.515   1.515   1.515   1.515   1.515   1.515   1.515   1.515   1.515   1.515   1.515   1.515   1.515   1.515   1.515   1.515   1.515   1.515   1.515   1.515   1.515
   104.50    1.515   1.515   1.515   1.515   1.515   1.515   1.515   1.515   1.515   1.515   1.515   1.515   1.515   1.515   1.515   1.515   1.515   1.515   1.515   1.515   1.515   1.515   1.515   1.515   1.515   1.515   1.515   1.515   1.515   1.515   1.515
    99.67    1.515   1.515   1.515   1.515   1.515   1.515   1.515   1.515   1.515   1.515   1.515   1.515   1.515   1.515   1.515   1.515   1.515   1.515   1.515   1.515   1.515   1.515   1.515   1.515   1.515   1.515   1.515   1.515   1.515   1.515   1.515
    94.83    1.515   1.515   1.515   1.515   1.515   1.515   1.515   1.515   1.515   1.515   1.515   1.515   1.515   1.515   1.515   1.515   1.515   1.515   1.515   1.515   1.515   1.515   1.515   1.515   1.515   1.515   1.515   1.515   1.515   1.515   1.515
    90.00    1.515   1.515   1.515   1.515   1.515   1.515   1.515   1.515   1.515   1.515   1.515   1.515   1.515   1.515   1.515   1.515   1.515   1.515   1.515   1.515   1.515   1.515   1.515   1.515   1.515   1.515   1.515   1.515   1.515   1.515   1.515
    85.17    1.515   1.515   1.515   1.515   1.515   1.515   1.515   1.515   1.515   1.515   1.515   1.515   1.515   1.515   1.515   1.515   1.515   1.515   1.515   1.515   1.515   1.515   1.515   1.515   1.515   1.515   1.515   1.515   1.515   1.515   1.515
    80.33    1.515   1.515   1.515   1.515   1.515   1.515   1.515   1.515   1.515   1.515   1.515   1.515   1.515   1.515   1.515   1.515   1.515   1.515   1.515   1.515   1.515   1.515   1.515   1.515   1.515   1.515   1.515   1.515   1.515   1.515   1.515
    75.50    1.515   1.515   1.515   1.515   1.515   1.515   1.515   1.515   1.515   1.515   1.515   1.515   1.515   1.515   1.515   1.515   1.515   1.515   1.515   1.515   1.515   1.515   1.515   1.515   1.515   1.515   1.515   1.515   1.515   1.515   1.515
    70.67    1.515   1.515   1.515   1.515   1.515   1.515   1.515   1.515   1.515   1.515   1.515   1.515   1.515   1.515   1.515   1.515   1.515   1.515   1.515   1.515   1.515   1.515   1.515   1.515   1.515   1.515   1.515   1.515   1.515   1.515   1.515
    65.83    1.515   1.515   1.515   1.515   1.515   1.515   1.515   1.515   1.515   1.515   1.515   1.515   1.515   1.515   1.515   1.515   1.515   1.515   1.515   1.515   1.515   1.515   1.515   1.515   1.515   1.515   1.515   1.515   1.515   1.515   1.515
    61.00    1.515   1.515   1.515   1.515   1.515   1.515   1.515   1.515   1.515   1.515   1.515   1.515   1.515   1.515   1.515   1.515   1.515   1.515   1.515   1.515   1.515   1.515   1.515   1.515   1.515   1.515   1.515   1.515   1.515   1.515   1.515
    56.17    1.515   1.515   1.515   1.515   1.515   1.515   1.515   1.515   1.515   1.515   1.515   1.515   1.515   1.515   1.515   1.515   1.515   1.515   1.515   1.515   1.515   1.515   1.515   1.515   1.515   1.515   1.515   1.515   1.515   1.515   1.515
    51.33    1.515   1.515   1.515   1.515   1.515   1.515   1.515   1.515   1.515   1.515   1.515   1.515   1.515   1.515   1.515   1.515   1.515   1.515   1.515   1.515   1.515   1.515   1.515   1.515   1.515   1.515   1.515   1.515   1.515   1.515   1.515
    46.50    1.515   1.515   1.515   1.515   1.515   1.515   1.515   1.515   1.515   1.515   1.515   1.515   1.515   1.515   1.515   1.515   1.515   1.515   1.515   1.515   1.515   1.515   1.515   1.515   1.515   1.515   1.515   1.515   1.515   1.515   1.515
    41.67    1.515   1.515   1.515   1.515   1.515   1.515   1.515   1.515   1.515   1.515   1.515   1.515   1.515   1.515   1.515   1.515   1.515   1.515   1.515   1.515   1.515   1.515   1.515   1.515   1.515   1.515   1.515   1.515   1.515   1.515   1.515
    36.83    1.515   1.515   1.515   1.515   1.515   1.515   1.515   1.515   1.515   1.515   1.515   1.515   1.515   1.515   1.515   1.515   1.515   1.515   1.515   1.515   1.515   1.515   1.515   1.515   1.515   1.515   1.515   1.515   1.515   1.515   1.515
    32.00    1.515   1.515   1.515   1.515   1.515   1.515   1.515   1.515   1.515   1.515   1.515   1.515   1.515   1.515   1.515   1.515   1.515   1.515   1.515   1.515   1.515   1.515   1.515   1.515   1.515   1.515   1.515   1.515   1.515   1.515   1.515
    27.17    1.515   1.515   1.515   1.515   1.515   1.515   1.515   1.515   1.515   1.515   1.515   1.515   1.515   1.515   1.515   1.515   1.515   1.515   1.515   1.515   1.515   1.515   1.515   1.515   1.515   1.515   1.515   1.515   1.515   1.515   1.515
    22.33    1.515   1.515   1.515   1.515   1.515   1.515   1.515   1.515   1.515   1.515   1.515   1.515   1.515   1.515   1.515   1.515   1.515   1.515   1.515   1.515   1.515   1.515   1.515   1.515   1.515   1.515   1.515   1.515   1.515   1.515   1.515
    17.50    1.515   1.515   1.515   1.515   1.515   1.515   1.515   1.515   1.515   1.515   1.515   1.515   1.515   1.515   1.515   1.515   1.515   1.515   1.515   1.515   1.515   1.515   1.515   1.515   1.515   1.515   1.515   1.515   1.515   1.515   1.515

   Height   Standard deviation at grid points for the w component:
   162.50    0.948   0.948   0.948   0.948   0.948   0.948   0.948   0.948   0.948   0.948   0.948   0.948   0.948   0.948   0.948   0.948   0.948   0.948   0.948   0.948   0.948   0.948   0.948   0.948   0.948   0.948   0.948   0.948   0.948   0.948   0.948
   157.67    0.948   0.948   0.948   0.948   0.948   0.948   0.948   0.948   0.948   0.948   0.948   0.948   0.948   0.948   0.948   0.948   0.948   0.948   0.948   0.948   0.948   0.948   0.948   0.948   0.948   0.948   0.948   0.948   0.948   0.948   0.948
   152.83    0.948   0.948   0.948   0.948   0.948   0.948   0.948   0.948   0.948   0.948   0.948   0.948   0.948   0.948   0.948   0.948   0.948   0.948   0.948   0.948   0.948   0.948   0.948   0.948   0.948   0.948   0.948   0.948   0.948   0.948   0.948
   148.00    0.948   0.948   0.948   0.948   0.948   0.948   0.948   0.948   0.948   0.948   0.948   0.948   0.948   0.948   0.948   0.948   0.948   0.948   0.948   0.948   0.948   0.948   0.948   0.948   0.948   0.948   0.948   0.948   0.948   0.948   0.948
   143.17    0.948   0.948   0.948   0.948   0.948   0.948   0.948   0.948   0.948   0.948   0.948   0.948   0.948   0.948   0.948   0.948   0.948   0.948   0.948   0.948   0.948   0.948   0.948   0.948   0.948   0.948   0.948   0.948   0.948   0.948   0.948
   138.33    0.948   0.948   0.948   0.948   0.948   0.948   0.948   0.948   0.948   0.948   0.948   0.948   0.948   0.948   0.948   0.948   0.948   0.948   0.948   0.948   0.948   0.948   0.948   0.948   0.948   0.948   0.948   0.948   0.948   0.948   0.948
   133.50    0.948   0.948   0.948   0.948   0.948   0.948   0.948   0.948   0.948   0.948   0.948   0.948   0.948   0.948   0.948   0.948   0.948   0.948   0.948   0.948   0.948   0.948   0.948   0.948   0.948   0.948   0.948   0.948   0.948   0.948   0.948
   128.67    0.948   0.948   0.948   0.948   0.948   0.948   0.948   0.948   0.948   0.948   0.948   0.948   0.948   0.948   0.948   0.948   0.948   0.948   0.948   0.948   0.948   0.948   0.948   0.948   0.948   0.948   0.948   0.948   0.948   0.948   0.948
   123.83    0.948   0.948   0.948   0.948   0.948   0.948   0.948   0.948   0.948   0.948   0.948   0.948   0.948   0.948   0.948   0.948   0.948   0.948   0.948   0.948   0.948   0.948   0.948   0.948   0.948   0.948   0.948   0.948   0.948   0.948   0.948
   119.00    0.948   0.948   0.948   0.948   0.948   0.948   0.948   0.948   0.948   0.948   0.948   0.948   0.948   0.948   0.948   0.948   0.948   0.948   0.948   0.948   0.948   0.948   0.948   0.948   0.948   0.948   0.948   0.948   0.948   0.948   0.948
   114.17    0.948   0.948   0.948   0.948   0.948   0.948   0.948   0.948   0.948   0.948   0.948   0.948   0.948   0.948   0.948   0.948   0.948   0.948   0.948   0.948   0.948   0.948   0.948   0.948   0.948   0.948   0.948   0.948   0.948   0.948   0.948
   109.33    0.948   0.948   0.948   0.948   0.948   0.948   0.948   0.948   0.948   0.948   0.948   0.948   0.948   0.948   0.948   0.948   0.948   0.948   0.948   0.948   0.948   0.948   0.948   0.948   0.948   0.948   0.948   0.948   0.948   0.948   0.948
   104.50    0.948   0.948   0.948   0.948   0.948   0.948   0.948   0.948   0.948   0.948   0.948   0.948   0.948   0.948   0.948   0.948   0.948   0.948   0.948   0.948   0.948   0.948   0.948   0.948   0.948   0.948   0.948   0.948   0.948   0.948   0.948
    99.67    0.948   0.948   0.948   0.948   0.948   0.948   0.948   0.948   0.948   0.948   0.948   0.948   0.948   0.948   0.948   0.948   0.948   0.948   0.948   0.948   0.948   0.948   0.948   0.948   0.948   0.948   0.948   0.948   0.948   0.948   0.948
    94.83    0.948   0.948   0.948   0.948   0.948   0.948   0.948   0.948   0.948   0.948   0.948   0.948   0.948   0.948   0.948   0.948   0.948   0.948   0.948   0.948   0.948   0.948   0.948   0.948   0.948   0.948   0.948   0.948   0.948   0.948   0.948
    90.00    0.948   0.948   0.948   0.948   0.948   0.948   0.948   0.948   0.948   0.948   0.948   0.948   0.948   0.948   0.948   0.948   0.948   0.948   0.948   0.948   0.948   0.948   0.948   0.948   0.948   0.948   0.948   0.948   0.948   0.948   0.948
    85.17    0.948   0.948   0.948   0.948   0.948   0.948   0.948   0.948   0.948   0.948   0.948   0.948   0.948   0.948   0.948   0.948   0.948   0.948   0.948   0.948   0.948   0.948   0.948   0.948   0.948   0.948   0.948   0.948   0.948   0.948   0.948
    80.33    0.948   0.948   0.948   0.948   0.948   0.948   0.948   0.948   0.948   0.948   0.948   0.948   0.948   0.948   0.948   0.948   0.948   0.948   0.948   0.948   0.948   0.948   0.948   0.948   0.948   0.948   0.948   0.948   0.948   0.948   0.948
    75.50    0.948   0.948   0.948   0.948   0.948   0.948   0.948   0.948   0.948   0.948   0.948   0.948   0.948   0.948   0.948   0.948   0.948   0.948   0.948   0.948   0.948   0.948   0.948   0.948   0.948   0.948   0.948   0.948   0.948   0.948   0.948
    70.67    0.948   0.948   0.948   0.948   0.948   0.948   0.948   0.948   0.948   0.948   0.948   0.948   0.948   0.948   0.948   0.948   0.948   0.948   0.948   0.948   0.948   0.948   0.948   0.948   0.948   0.948   0.948   0.948   0.948   0.948   0.948
    65.83    0.948   0.948   0.948   0.948   0.948   0.948   0.948   0.948   0.948   0.948   0.948   0.948   0.948   0.948   0.948   0.948   0.948   0.948   0.948   0.948   0.948   0.948   0.948   0.948   0.948   0.948   0.948   0.948   0.948   0.948   0.948
    61.00    0.948   0.948   0.948   0.948   0.948   0.948   0.948   0.948   0.948   0.948   0.948   0.948   0.948   0.948   0.948   0.948   0.948   0.948   0.948   0.948   0.948   0.948   0.948   0.948   0.948   0.948   0.948   0.948   0.948   0.948   0.948
    56.17    0.948   0.948   0.948   0.948   0.948   0.948   0.948   0.948   0.948   0.948   0.948   0.948   0.948   0.948   0.948   0.948   0.948   0.948   0.948   0.948   0.948   0.948   0.948   0.948   0.948   0.948   0.948   0.948   0.948   0.948   0.948
    51.33    0.948   0.948   0.948   0.948   0.948   0.948   0.948   0.948   0.948   0.948   0.948   0.948   0.948   0.948   0.948   0.948   0.948   0.948   0.948   0.948   0.948   0.948   0.948   0.948   0.948   0.948   0.948   0.948   0.948   0.948   0.948
    46.50    0.948   0.948   0.948   0.948   0.948   0.948   0.948   0.948   0.948   0.948   0.948   0.948   0.948   0.948   0.948   0.948   0.948   0.948   0.948   0.948   0.948   0.948   0.948   0.948   0.948   0.948   0.948   0.948   0.948   0.948   0.948
    41.67    0.948   0.948   0.948   0.948   0.948   0.948   0.948   0.948   0.948   0.948   0.948   0.948   0.948   0.948   0.948   0.948   0.948   0.948   0.948   0.948   0.948   0.948   0.948   0.948   0.948   0.948   0.948   0.948   0.948   0.948   0.948
    36.83    0.948   0.948   0.948   0.948   0.948   0.948   0.948   0.948   0.948   0.948   0.948   0.948   0.948   0.948   0.948   0.948   0.948   0.948   0.948   0.948   0.948   0.948   0.948   0.948   0.948   0.948   0.948   0.948   0.948   0.948   0.948
    32.00    0.948   0.948   0.948   0.948   0.948   0.948   0.948   0.948   0.948   0.948   0.948   0.948   0.948   0.948   0.948   0.948   0.948   0.948   0.948   0.948   0.948   0.948   0.948   0.948   0.948   0.948   0.948   0.948   0.948   0.948   0.948
    27.17    0.948   0.948   0.948   0.948   0.948   0.948   0.948   0.948   0.948   0.948   0.948   0.948   0.948   0.948   0.948   0.948   0.948   0.948   0.948   0.948   0.948   0.948   0.948   0.948   0.948   0.948   0.948   0.948   0.948   0.948   0.948
    22.33    0.948   0.948   0.948   0.948   0.948   0.948   0.948   0.948   0.948   0.948   0.948   0.948   0.948   0.948   0.948   0.948   0.948   0.948   0.948   0.948   0.948   0.948   0.948   0.948   0.948   0.948   0.948   0.948   0.948   0.948   0.948
    17.50    0.948   0.948   0.948   0.948   0.948   0.948   0.948   0.948   0.948   0.948   0.948   0.948   0.948   0.948   0.948   0.948   0.948   0.948   0.948   0.948   0.948   0.948   0.948   0.948   0.948   0.948   0.948   0.948   0.948   0.948   0.948

   Mean standard deviation across all grid points:
      u component:    1.961 m/s
      v component:    1.515 m/s
      w component:    0.948 m/s


U-component (X) statistics from the interpolated hub point:

   Mean =  11.0000 m/s
   TI   =  19.5031 %


Processing complete.  183.95 CPU seconds used.
