
This file was generated by AeroDyn14 (v14.05.01a-bjj, 25-Jul-2016) on 06-Feb-2019 at 11:33:01.




Time	VX10	VY10	VZ10	Alpha01	DynPres01	CLift01	CDrag01	CNorm01	CTang01	Pitch01	AxInd01	TanInd01	ForcN01	ForcT01	ReNum01	Alpha02	DynPres02	CLift02	CDrag02	CNorm02	CTang02	Pitch02	AxInd02	TanInd02	ForcN02	ForcT02	ReNum02	Alpha03	DynPres03	CLift03	CDrag03	CNorm03	CTang03	Pitch03	AxInd03	TanInd03	ForcN03	ForcT03	ReNum03	Alpha04	DynPres04	CLift04	CDrag04	CNorm04	CTang04	Pitch04	AxInd04	TanInd04	ForcN04	ForcT04	ReNum04	Alpha05	DynPres05	CLift05	CDrag05	CNorm05	CTang05	Pitch05	AxInd05	TanInd05	ForcN05	ForcT05	ReNum05	Alpha06	DynPres06	CLift06	CDrag06	CNorm06	CTang06	Pitch06	AxInd06	TanInd06	ForcN06	ForcT06	ReNum06	Alpha07	DynPres07	CLift07	CDrag07	CNorm07	CTang07	Pitch07	AxInd07	TanInd07	ForcN07	ForcT07	ReNum07	Alpha08	DynPres08	CLift08	CDrag08	CNorm08	CTang08	Pitch08	AxInd08	TanInd08	ForcN08	ForcT08	ReNum08	Alpha09	DynPres09	CLift09	CDrag09	CNorm09	CTang09	Pitch09	AxInd09	TanInd09	ForcN09	ForcT09	ReNum09	Alpha10	DynPres10	CLift10	CDrag10	CNorm10	CTang10	Pitch10	AxInd10	TanInd10	ForcN10	ForcT10	ReNum10
(sec)	 (m/sec)	 (m/sec)	 (m/sec)	(deg)	(Pa)	(-)	(-)	(-)	(-)	(deg)	(-)	(-)	(N)	(N)	(x10^6)	(deg)	(Pa)	(-)	(-)	(-)	(-)	(deg)	(-)	(-)	(N)	(N)	(x10^6)	(deg)	(Pa)	(-)	(-)	(-)	(-)	(deg)	(-)	(-)	(N)	(N)	(x10^6)	(deg)	(Pa)	(-)	(-)	(-)	(-)	(deg)	(-)	(-)	(N)	(N)	(x10^6)	(deg)	(Pa)	(-)	(-)	(-)	(-)	(deg)	(-)	(-)	(N)	(N)	(x10^6)	(deg)	(Pa)	(-)	(-)	(-)	(-)	(deg)	(-)	(-)	(N)	(N)	(x10^6)	(deg)	(Pa)	(-)	(-)	(-)	(-)	(deg)	(-)	(-)	(N)	(N)	(x10^6)	(deg)	(Pa)	(-)	(-)	(-)	(-)	(deg)	(-)	(-)	(N)	(N)	(x10^6)	(deg)	(Pa)	(-)	(-)	(-)	(-)	(deg)	(-)	(-)	(N)	(N)	(x10^6)	(deg)	(Pa)	(-)	(-)	(-)	(-)	(deg)	(-)	(-)	(N)	(N)	(x10^6)
     0.000	 5.72147E+00	-4.44547E+00	-2.74312E-01	 2.15580E+01	 4.72830E+01	 1.15725E+00	 2.44928E-01	 1.16629E+00	 1.97427E-01	 4.80000E+00	 0.00000E+00	 0.00000E+00	 5.85060E+01	 1.50303E+01	 5.15562E-01	 1.15723E+01	 1.45401E+02	 1.51723E+00	 2.65968E-02	 1.49172E+00	 2.78306E-01	 4.20000E+00	 0.00000E+00	 0.00000E+00	 2.80319E+02	 7.38960E+01	 1.09986E+00	 8.05246E+00	 3.04065E+02	 1.29306E+00	 1.22965E-02	 1.28203E+00	 1.68956E-01	 3.66000E+00	 0.00000E+00	 0.00000E+00	 5.55325E+02	 1.09631E+02	 1.74271E+00	 6.87811E+00	 5.23925E+02	 1.17378E+00	 1.14628E-02	 1.16670E+00	 1.29189E-01	 2.73000E+00	 0.00000E+00	 0.00000E+00	 8.58307E+02	 1.36689E+02	 2.24562E+00	 6.71065E+00	 8.05299E+02	 1.05831E+00	 1.14198E-02	 1.05240E+00	 1.12328E-01	 1.64000E+00	 0.00000E+00	 0.00000E+00	 1.11921E+03	 1.51967E+02	 2.61069E+00	 6.93820E+00	 1.13840E+03	 9.95488E-01	 1.19892E-02	 9.89647E-01	 1.08352E-01	 5.90000E-01	 0.00000E+00	 0.00000E+00	 1.38086E+03	 1.65591E+02	 2.87430E+00	 7.23702E+00	 1.52278E+03	 9.47263E-01	 1.27886E-02	 9.41328E-01	 1.06644E-01	-2.70000E-01	 0.00000E+00	 0.00000E+00	 1.59583E+03	 1.73181E+02	 3.01438E+00	 7.29677E+00	 1.96172E+03	 8.90422E-01	 1.48960E-02	 8.85103E-01	 9.83160E-02	-7.70000E-01	 0.00000E+00	 0.00000E+00	 1.69426E+03	 1.65178E+02	 2.99609E+00	 7.02394E+00	 2.45872E+03	 8.14680E-01	 1.70605E-02	 8.10652E-01	 8.26898E-02	-9.20000E-01	 0.00000E+00	 0.00000E+00	 1.63387E+03	 1.40195E+02	 2.81755E+00	 6.40843E+00	 3.02520E+03	 7.65162E-01	 1.24713E-02	 7.61773E-01	 7.30103E-02	-9.70000E-01	 0.00000E+00	 0.00000E+00	 1.43056E+03	 1.12705E+02	 2.36679E+00
     0.004	 5.72188E+00	-4.45513E+00	-3.04850E-01	 2.15619E+01	 4.71010E+01	 1.14137E+00	 2.40270E-01	 1.14980E+00	 1.96005E-01	 4.80000E+00	-0.00000E+00	 0.00000E+00	 5.74510E+01	 1.48302E+01	 5.14569E-01	 1.15926E+01	 1.45114E+02	 1.48254E+00	 2.53958E-02	 1.45740E+00	 2.73040E-01	 4.20000E+00	-0.00000E+00	 0.00000E+00	 2.73313E+02	 7.22695E+01	 1.09877E+00	 8.08663E+00	 3.03664E+02	 1.26474E+00	 1.27883E-02	 1.25396E+00	 1.65250E-01	 3.66000E+00	-0.00000E+00	 0.00000E+00	 5.42449E+02	 1.07086E+02	 1.74156E+00	 6.93369E+00	 5.23459E+02	 1.15161E+00	 1.07804E-02	 1.14449E+00	 1.28322E-01	 2.73000E+00	-0.00000E+00	 0.00000E+00	 8.41160E+02	 1.35144E+02	 2.24462E+00	 6.79802E+00	 8.04740E+02	 1.04252E+00	 1.13550E-02	 1.03653E+00	 1.12128E-01	 1.64000E+00	-0.00000E+00	 0.00000E+00	 1.10152E+03	 1.51164E+02	 2.60978E+00	 6.99430E+00	 1.13793E+03	 9.91438E-01	 1.12876E-02	 9.85435E-01	 1.09525E-01	 5.90001E-01	-0.00000E+00	 0.00000E+00	 1.37440E+03	 1.67100E+02	 2.87372E+00	 7.25489E+00	 1.52179E+03	 9.47027E-01	 1.16131E-02	 9.40912E-01	 1.08074E-01	-2.69999E-01	-0.00000E+00	 0.00000E+00	 1.59410E+03	 1.75493E+02	 3.01340E+00	 7.27930E+00	 1.96082E+03	 8.89842E-01	 1.34196E-02	 8.84371E-01	 9.94371E-02	-7.69999E-01	-0.00000E+00	 0.00000E+00	 1.69211E+03	 1.67264E+02	 2.99541E+00	 6.99090E+00	 2.45759E+03	 8.12957E-01	 1.56454E-02	 8.08817E-01	 8.34173E-02	-9.19999E-01	-0.00000E+00	 0.00000E+00	 1.62945E+03	 1.41653E+02	 2.81690E+00	 6.34786E+00	 3.02593E+03	 7.61137E-01	 1.12145E-02	 7.57710E-01	 7.30090E-02	-9.69999E-01	-0.00000E+00	 0.00000E+00	 1.42329E+03	 1.12859E+02	 2.36708E+00
     0.008	 5.72457E+00	-4.45718E+00	-3.35933E-01	 2.15175E+01	 4.69076E+01	 1.35191E+00	 3.04274E-01	 1.36929E+00	 2.12793E-01	 4.80000E+00	-0.00000E+00	 0.00000E+00	 6.82246E+01	 1.65473E+01	 5.13512E-01	 1.16187E+01	 1.44837E+02	 1.49585E+00	 2.64420E-02	 1.47052E+00	 2.75361E-01	 4.20000E+00	-0.00000E+00	 0.00000E+00	 2.75249E+02	 7.27548E+01	 1.09772E+00	 8.12453E+00	 3.03278E+02	 1.28303E+00	 1.36456E-02	 1.27209E+00	 1.67816E-01	 3.66000E+00	-0.00000E+00	 0.00000E+00	 5.49585E+02	 1.08573E+02	 1.74045E+00	 6.99213E+00	 5.22998E+02	 1.17349E+00	 1.18971E-02	 1.16621E+00	 1.31044E-01	 2.73000E+00	-0.00000E+00	 0.00000E+00	 8.56358E+02	 1.37799E+02	 2.24363E+00	 6.88749E+00	 8.04189E+02	 1.06858E+00	 1.29151E-02	 1.06242E+00	 1.15323E-01	 1.64000E+00	-0.00000E+00	 0.00000E+00	 1.12825E+03	 1.55254E+02	 2.60889E+00	 7.05224E+00	 1.13748E+03	 1.00454E+00	 1.22191E-02	 9.98438E-01	 1.11205E-01	 5.89999E-01	-0.00000E+00	 0.00000E+00	 1.39198E+03	 1.69565E+02	 2.87315E+00	 7.27303E+00	 1.52083E+03	 9.50416E-01	 1.18835E-02	 9.44273E-01	 1.08533E-01	-2.70001E-01	-0.00000E+00	 0.00000E+00	 1.59879E+03	 1.76132E+02	 3.01245E+00	 7.26302E+00	 1.95999E+03	 8.87234E-01	 1.31981E-02	 8.81784E-01	 9.90758E-02	-7.70001E-01	-0.00000E+00	 0.00000E+00	 1.68644E+03	 1.66569E+02	 2.99477E+00	 6.95854E+00	 2.45704E+03	 8.09047E-01	 1.52553E-02	 8.04936E-01	 8.28740E-02	-9.20001E-01	-0.00000E+00	 0.00000E+00	 1.62127E+03	 1.40654E+02	 2.81659E+00	 6.28778E+00	 3.02752E+03	 7.55573E-01	 1.06726E-02	 7.52196E-01	 7.21437E-02	-9.70001E-01	-0.00000E+00	 0.00000E+00	 1.41367E+03	 1.11469E+02	 2.36770E+00
     0.012	 5.72993E+00	-4.45155E+00	-3.67504E-01	 2.14705E+01	 4.67204E+01	 1.23208E+00	 2.66309E-01	 1.24405E+00	 2.03138E-01	 4.80000E+00	-0.00000E+00	 0.00000E+00	 6.16959E+01	 1.54670E+01	 5.12486E-01	 1.16432E+01	 1.44572E+02	 1.53043E+00	 2.80874E-02	 1.50460E+00	 2.81356E-01	 4.20000E+00	-0.00000E+00	 0.00000E+00	 2.81118E+02	 7.42316E+01	 1.09672E+00	 8.16011E+00	 3.02899E+02	 1.31255E+00	 1.44886E-02	 1.30132E+00	 1.71961E-01	 3.66000E+00	-0.00000E+00	 0.00000E+00	 5.61503E+02	 1.11055E+02	 1.73936E+00	 7.04724E+00	 5.22559E+02	 1.20060E+00	 1.29247E-02	 1.19312E+00	 1.34472E-01	 2.73000E+00	-0.00000E+00	 0.00000E+00	 8.75368E+02	 1.41159E+02	 2.24269E+00	 6.97390E+00	 8.03652E+02	 1.09413E+00	 1.43400E-02	 1.08777E+00	 1.18612E-01	 1.64000E+00	-0.00000E+00	 0.00000E+00	 1.15438E+03	 1.59424E+02	 2.60802E+00	 7.10876E+00	 1.13705E+03	 1.01578E+00	 1.30288E-02	 1.00959E+00	 1.12778E-01	 5.90000E-01	-0.00000E+00	 0.00000E+00	 1.40698E+03	 1.71856E+02	 2.87260E+00	 7.28904E+00	 1.51988E+03	 9.52961E-01	 1.20790E-02	 9.46792E-01	 1.08925E-01	-2.70000E-01	-0.00000E+00	 0.00000E+00	 1.60205E+03	 1.76666E+02	 3.01151E+00	 7.24688E+00	 1.95916E+03	 8.85670E-01	 1.30264E-02	 8.80238E-01	 9.88005E-02	-7.70000E-01	-0.00000E+00	 0.00000E+00	 1.68277E+03	 1.66013E+02	 2.99414E+00	 6.92684E+00	 2.45698E+03	 8.06670E-01	 1.49601E-02	 8.02587E-01	 8.24350E-02	-9.20000E-01	-0.00000E+00	 0.00000E+00	 1.61649E+03	 1.39844E+02	 2.81655E+00	 6.22926E+00	 3.02980E+03	 7.51878E-01	 1.02550E-02	 7.48552E-01	 7.13897E-02	-9.70000E-01	-0.00000E+00	 0.00000E+00	 1.40786E+03	 1.10253E+02	 2.36859E+00
     0.016	 5.73852E+00	-4.43856E+00	-3.99510E-01	 2.14223E+01	 4.65425E+01	 1.12494E+00	 2.32468E-01	 1.13213E+00	 1.94465E-01	 4.80000E+00	-0.00000E+00	 0.00000E+00	 5.58912E+01	 1.45029E+01	 5.11510E-01	 1.16668E+01	 1.44329E+02	 1.54241E+00	 2.89958E-02	 1.51641E+00	 2.83509E-01	 4.20000E+00	-0.00000E+00	 0.00000E+00	 2.82850E+02	 7.46782E+01	 1.09580E+00	 8.19401E+00	 3.02554E+02	 1.32173E+00	 1.51623E-02	 1.31039E+00	 1.73372E-01	 3.66000E+00	-0.00000E+00	 0.00000E+00	 5.64770E+02	 1.11794E+02	 1.73837E+00	 7.10078E+00	 5.22146E+02	 1.20806E+00	 1.37925E-02	 1.20050E+00	 1.35648E-01	 2.73000E+00	-0.00000E+00	 0.00000E+00	 8.80077E+02	 1.42173E+02	 2.24181E+00	 7.05872E+00	 8.03124E+02	 1.10183E+00	 1.55131E-02	 1.09538E+00	 1.20004E-01	 1.64000E+00	-0.00000E+00	 0.00000E+00	 1.16168E+03	 1.61033E+02	 2.60716E+00	 7.16653E+00	 1.13620E+03	 1.01981E+00	 1.37198E-02	 1.01355E+00	 1.13612E-01	 5.90001E-01	-0.00000E+00	 0.00000E+00	 1.41144E+03	 1.72947E+02	 2.87152E+00	 7.30486E+00	 1.51893E+03	 9.53786E-01	 1.22305E-02	 9.47600E-01	 1.09141E-01	-2.69999E-01	-0.00000E+00	 0.00000E+00	 1.60242E+03	 1.76914E+02	 3.01056E+00	 7.23204E+00	 1.95831E+03	 8.84816E-01	 1.29059E-02	 8.79401E-01	 9.85845E-02	-7.69999E-01	-0.00000E+00	 0.00000E+00	 1.68044E+03	 1.65550E+02	 2.99349E+00	 6.89573E+00	 2.45738E+03	 8.04990E-01	 1.47174E-02	 8.00934E-01	 8.20384E-02	-9.20000E-01	-0.00000E+00	 0.00000E+00	 1.61341E+03	 1.39122E+02	 2.81678E+00	 6.17140E+00	 3.03269E+03	 7.48571E-01	 9.88034E-03	 7.45295E-01	 7.06506E-02	-9.70000E-01	-0.00000E+00	 0.00000E+00	 1.40306E+03	 1.09073E+02	 2.36972E+00
     0.020	 5.75089E+00	-4.41856E+00	-4.31889E-01	 2.13743E+01	 4.63738E+01	 1.10050E+00	 2.24091E-01	 1.10648E+00	 1.92409E-01	 4.80000E+00	-0.00000E+00	 0.00000E+00	 5.44168E+01	 1.42402E+01	 5.10582E-01	 1.16919E+01	 1.44103E+02	 1.53947E+00	 2.94533E-02	 1.51349E+00	 2.83128E-01	 4.20000E+00	-0.00000E+00	 0.00000E+00	 2.81861E+02	 7.44487E+01	 1.09494E+00	 8.22870E+00	 3.02227E+02	 1.32122E+00	 1.57667E-02	 1.30988E+00	 1.73495E-01	 3.66000E+00	-0.00000E+00	 0.00000E+00	 5.63932E+02	 1.11713E+02	 1.73743E+00	 7.15456E+00	 5.21757E+02	 1.20931E+00	 1.45793E-02	 1.20171E+00	 1.36149E-01	 2.73000E+00	-0.00000E+00	 0.00000E+00	 8.80294E+02	 1.42479E+02	 2.24097E+00	 7.14411E+00	 8.02622E+02	 1.10525E+00	 1.65666E-02	 1.09873E+00	 1.21017E-01	 1.64000E+00	-0.00000E+00	 0.00000E+00	 1.16448E+03	 1.62110E+02	 2.60634E+00	 7.22590E+00	 1.13533E+03	 1.02299E+00	 1.43618E-02	 1.01667E+00	 1.14426E-01	 5.90001E-01	-0.00000E+00	 0.00000E+00	 1.41470E+03	 1.73993E+02	 2.87042E+00	 7.32299E+00	 1.51797E+03	 9.54547E-01	 1.23998E-02	 9.48341E-01	 1.09370E-01	-2.69999E-01	-0.00000E+00	 0.00000E+00	 1.60266E+03	 1.77183E+02	 3.00961E+00	 7.22039E+00	 1.95743E+03	 8.84157E-01	 1.28454E-02	 8.78760E-01	 9.83829E-02	-7.69999E-01	-0.00000E+00	 0.00000E+00	 1.67846E+03	 1.65107E+02	 2.99282E+00	 6.86651E+00	 2.45819E+03	 8.03338E-01	 1.45165E-02	 7.99312E-01	 8.16320E-02	-9.20000E-01	-0.00000E+00	 0.00000E+00	 1.61067E+03	 1.38403E+02	 2.81724E+00	 6.11414E+00	 3.03615E+03	 7.45188E-01	 9.52210E-03	 7.41964E-01	 6.99017E-02	-9.70001E-01	-0.00000E+00	 0.00000E+00	 1.39837E+03	 1.07894E+02	 2.37107E+00
     0.024	 5.76671E+00	-4.39846E+00	-4.65671E-01	 2.13256E+01	 4.62139E+01	 1.09939E+00	 2.22866E-01	 1.10516E+00	 1.92204E-01	 4.80000E+00	-0.00000E+00	 0.00000E+00	 5.41644E+01	 1.41753E+01	 5.09700E-01	 1.17170E+01	 1.43895E+02	 1.54067E+00	 3.00197E-02	 1.51466E+00	 2.83483E-01	 4.20000E+00	-0.00000E+00	 0.00000E+00	 2.81669E+02	 7.44243E+01	 1.09415E+00	 8.26312E+00	 3.01923E+02	 1.32189E+00	 1.63403E-02	 1.31052E+00	 1.73811E-01	 3.66000E+00	-0.00000E+00	 0.00000E+00	 5.63632E+02	 1.11755E+02	 1.73656E+00	 7.20797E+00	 5.21382E+02	 1.21107E+00	 1.53077E-02	 1.20342E+00	 1.36768E-01	 2.73000E+00	-0.00000E+00	 0.00000E+00	 8.80898E+02	 1.42892E+02	 2.24016E+00	 7.22960E+00	 8.02135E+02	 1.10922E+00	 1.75429E-02	 1.10261E+00	 1.22187E-01	 1.64000E+00	-0.00000E+00	 0.00000E+00	 1.16786E+03	 1.63373E+02	 2.60555E+00	 7.28759E+00	 1.13445E+03	 1.02669E+00	 1.49878E-02	 1.02030E+00	 1.15369E-01	 5.90002E-01	-0.00000E+00	 0.00000E+00	 1.41865E+03	 1.75225E+02	 2.86932E+00	 7.34392E+00	 1.51700E+03	 9.55986E-01	 1.26004E-02	 9.49754E-01	 1.09702E-01	-2.69998E-01	-0.00000E+00	 0.00000E+00	 1.60402E+03	 1.77618E+02	 3.00865E+00	 7.20646E+00	 1.95700E+03	 8.83670E-01	 1.27578E-02	 8.78290E-01	 9.81951E-02	-7.69999E-01	-0.00000E+00	 0.00000E+00	 1.67719E+03	 1.64726E+02	 2.99249E+00	 6.84005E+00	 2.45940E+03	 8.01833E-01	 1.43585E-02	 7.97836E-01	 8.12404E-02	-9.20000E-01	-0.00000E+00	 0.00000E+00	 1.60848E+03	 1.37731E+02	 2.81794E+00	 6.05911E+00	 3.03954E+03	 7.41927E-01	 9.18849E-03	 7.38752E-01	 6.91765E-02	-9.70001E-01	-0.00000E+00	 0.00000E+00	 1.39386E+03	 1.06751E+02	 2.37239E+00
     0.028	 5.78323E+00	-4.39698E+00	-5.01824E-01	 2.12753E+01	 4.60628E+01	 1.10315E+00	 2.23106E-01	 1.10892E+00	 1.92375E-01	 4.80000E+00	-0.00000E+00	 0.00000E+00	 5.41731E+01	 1.41532E+01	 5.08866E-01	 1.17411E+01	 1.43707E+02	 1.54507E+00	 3.06381E-02	 1.51898E+00	 2.84408E-01	 4.20000E+00	-0.00000E+00	 0.00000E+00	 2.82101E+02	 7.45610E+01	 1.09343E+00	 8.29645E+00	 3.01645E+02	 1.32421E+00	 1.68726E-02	 1.31279E+00	 1.74381E-01	 3.66000E+00	-0.00000E+00	 0.00000E+00	 5.64083E+02	 1.11962E+02	 1.73576E+00	 7.26079E+00	 5.21047E+02	 1.21353E+00	 1.59811E-02	 1.20582E+00	 1.37520E-01	 2.73000E+00	-0.00000E+00	 0.00000E+00	 8.82067E+02	 1.43437E+02	 2.23944E+00	 7.31486E+00	 8.01668E+02	 1.11398E+00	 1.84505E-02	 1.10726E+00	 1.23534E-01	 1.64000E+00	-0.00000E+00	 0.00000E+00	 1.17208E+03	 1.64850E+02	 2.60479E+00	 7.35184E+00	 1.13358E+03	 1.03100E+00	 1.56087E-02	 1.02452E+00	 1.16448E-01	 5.90004E-01	-0.00000E+00	 0.00000E+00	 1.42341E+03	 1.76652E+02	 2.86822E+00	 7.36840E+00	 1.51600E+03	 9.57946E-01	 1.28399E-02	 9.51682E-01	 1.10121E-01	-2.69996E-01	-0.00000E+00	 0.00000E+00	 1.60622E+03	 1.78193E+02	 3.00765E+00	 7.19443E+00	 1.95677E+03	 8.82687E-01	 1.26964E-02	 8.77328E-01	 9.79485E-02	-7.69997E-01	-0.00000E+00	 0.00000E+00	 1.67515E+03	 1.64261E+02	 2.99231E+00	 6.81640E+00	 2.46099E+03	 8.00511E-01	 1.42342E-02	 7.96543E-01	 8.08777E-02	-9.19999E-01	-0.00000E+00	 0.00000E+00	 1.60691E+03	 1.37131E+02	 2.81885E+00	 6.00906E+00	 3.04124E+03	 7.39071E-01	 8.90020E-03	 7.35942E-01	 6.85189E-02	-9.70002E-01	-0.00000E+00	 0.00000E+00	 1.38932E+03	 1.05661E+02	 2.37306E+00
     0.032	 5.80393E+00	-4.39772E+00	-5.36561E-01	 2.12233E+01	 4.59209E+01	 1.10347E+00	 2.22276E-01	 1.10910E+00	 1.92260E-01	 4.80000E+00	-0.00000E+00	 0.00000E+00	 5.40155E+01	 1.41046E+01	 5.08082E-01	 1.17640E+01	 1.43536E+02	 1.54687E+00	 3.11244E-02	 1.52072E+00	 2.84907E-01	 4.20000E+00	-0.00000E+00	 0.00000E+00	 2.82085E+02	 7.45899E+01	 1.09278E+00	 8.32916E+00	 3.01380E+02	 1.32530E+00	 1.73575E-02	 1.31384E+00	 1.74809E-01	 3.66000E+00	-0.00000E+00	 0.00000E+00	 5.64029E+02	 1.12078E+02	 1.73499E+00	 7.31250E+00	 5.20725E+02	 1.21621E+00	 1.65921E-02	 1.20843E+00	 1.38343E-01	 2.73000E+00	-0.00000E+00	 0.00000E+00	 8.83415E+02	 1.44046E+02	 2.23875E+00	 7.39962E+00	 8.01218E+02	 1.11907E+00	 1.92901E-02	 1.11224E+00	 1.24995E-01	 1.64001E+00	-0.00000E+00	 0.00000E+00	 1.17666E+03	 1.66459E+02	 2.60406E+00	 7.41910E+00	 1.13271E+03	 1.03583E+00	 1.62357E-02	 1.02925E+00	 1.17652E-01	 5.90006E-01	-0.00000E+00	 0.00000E+00	 1.42888E+03	 1.78258E+02	 2.86712E+00	 7.39661E+00	 1.51498E+03	 9.60339E-01	 1.31163E-02	 9.54037E-01	 1.10624E-01	-2.69994E-01	-0.00000E+00	 0.00000E+00	 1.60911E+03	 1.78902E+02	 3.00664E+00	 7.18539E+00	 1.95668E+03	 8.81967E-01	 1.26810E-02	 8.76626E-01	 9.77352E-02	-7.69995E-01	-0.00000E+00	 0.00000E+00	 1.67373E+03	 1.63865E+02	 2.99225E+00	 6.77841E+00	 2.46340E+03	 7.98439E-01	 1.39117E-02	 7.94500E-01	 8.04251E-02	-9.19999E-01	-0.00000E+00	 0.00000E+00	 1.60434E+03	 1.36419E+02	 2.82023E+00	 5.96182E+00	 3.04269E+03	 7.36524E-01	 8.61998E-03	 7.33436E-01	 6.79263E-02	-9.70003E-01	-0.00000E+00	 0.00000E+00	 1.38524E+03	 1.04674E+02	 2.37362E+00
     0.036	 5.82947E+00	-4.40057E+00	-5.69962E-01	 2.11687E+01	 4.57865E+01	 1.10541E+00	 2.21892E-01	 1.11094E+00	 1.92260E-01	 4.80000E+00	-0.00000E+00	 0.00000E+00	 5.39484E+01	 1.40710E+01	 5.07338E-01	 1.17861E+01	 1.43376E+02	 1.54679E+00	 3.15070E-02	 1.52062E+00	 2.85102E-01	 4.20000E+00	-0.00000E+00	 0.00000E+00	 2.81750E+02	 7.45423E+01	 1.09217E+00	 8.35963E+00	 3.01141E+02	 1.32747E+00	 1.77782E-02	 1.31595E+00	 1.75407E-01	 3.66000E+00	-0.00000E+00	 0.00000E+00	 5.64482E+02	 1.12306E+02	 1.73431E+00	 7.36280E+00	 5.20422E+02	 1.21888E+00	 1.71385E-02	 1.21103E+00	 1.39204E-01	 2.73000E+00	-0.00000E+00	 0.00000E+00	 8.84778E+02	 1.44686E+02	 2.23810E+00	 7.48353E+00	 8.00786E+02	 1.12441E+00	 2.00636E-02	 1.11744E+00	 1.26552E-01	 1.64001E+00	-0.00000E+00	 0.00000E+00	 1.18150E+03	 1.68179E+02	 2.60336E+00	 7.48997E+00	 1.13182E+03	 1.04113E+00	 1.68821E-02	 1.03445E+00	 1.18977E-01	 5.90010E-01	-0.00000E+00	 0.00000E+00	 1.43496E+03	 1.80031E+02	 2.86599E+00	 7.42922E+00	 1.51392E+03	 9.63092E-01	 1.34361E-02	 9.56745E-01	 1.11206E-01	-2.69991E-01	-0.00000E+00	 0.00000E+00	 1.61255E+03	 1.79735E+02	 3.00559E+00	 7.17990E+00	 1.95670E+03	 8.81683E-01	 1.27140E-02	 8.76359E-01	 9.75831E-02	-7.69993E-01	-0.00000E+00	 0.00000E+00	 1.67324E+03	 1.63584E+02	 2.99226E+00	 6.74229E+00	 2.46610E+03	 7.95330E-01	 1.36249E-02	 7.91429E-01	 7.98441E-02	-9.19998E-01	-0.00000E+00	 0.00000E+00	 1.59989E+03	 1.35495E+02	 2.82177E+00	 5.91794E+00	 3.04393E+03	 7.34189E-01	 8.35385E-03	 7.31138E-01	 6.73885E-02	-9.70004E-01	-0.00000E+00	 0.00000E+00	 1.38145E+03	 1.03775E+02	 2.37410E+00
     0.040	 5.86086E+00	-4.40624E+00	-6.02320E-01	 2.11105E+01	 4.56573E+01	 1.10855E+00	 2.21809E-01	 1.11404E+00	 1.92340E-01	 4.80000E+00	-0.00000E+00	 0.00000E+00	 5.39477E+01	 1.40479E+01	 5.06622E-01	 1.18060E+01	 1.43233E+02	 1.54873E+00	 3.18852E-02	 1.52250E+00	 2.85658E-01	 4.20000E+00	-0.00000E+00	 0.00000E+00	 2.81813E+02	 7.45981E+01	 1.09163E+00	 8.38863E+00	 3.00916E+02	 1.32826E+00	 1.81371E-02	 1.31669E+00	 1.75832E-01	 3.66000E+00	-0.00000E+00	 0.00000E+00	 5.64367E+02	 1.12427E+02	 1.73366E+00	 7.41152E+00	 5.20146E+02	 1.22142E+00	 1.76215E-02	 1.21349E+00	 1.40083E-01	 2.73001E+00	-0.00000E+00	 0.00000E+00	 8.86084E+02	 1.45340E+02	 2.23751E+00	 7.56620E+00	 8.00374E+02	 1.12992E+00	 2.07717E-02	 1.12282E+00	 1.28188E-01	 1.64001E+00	-0.00000E+00	 0.00000E+00	 1.18654E+03	 1.69991E+02	 2.60269E+00	 7.56429E+00	 1.13094E+03	 1.04703E+00	 1.75484E-02	 1.04023E+00	 1.20434E-01	 5.90015E-01	-0.00000E+00	 0.00000E+00	 1.44184E+03	 1.81996E+02	 2.86487E+00	 7.46629E+00	 1.51282E+03	 9.66269E-01	 1.37973E-02	 9.59869E-01	 1.11879E-01	-2.69985E-01	-0.00000E+00	 0.00000E+00	 1.61665E+03	 1.80714E+02	 3.00450E+00	 7.17839E+00	 1.95680E+03	 8.81713E-01	 1.27919E-02	 8.76401E-01	 9.74863E-02	-7.69988E-01	-0.00000E+00	 0.00000E+00	 1.67340E+03	 1.63406E+02	 2.99234E+00	 6.70858E+00	 2.46899E+03	 7.93061E-01	 1.33969E-02	 7.89196E-01	 7.93399E-02	-9.19995E-01	-0.00000E+00	 0.00000E+00	 1.59724E+03	 1.34708E+02	 2.82343E+00	 5.87866E+00	 3.04490E+03	 7.32213E-01	 8.11546E-03	 7.29193E-01	 6.69220E-02	-9.70005E-01	-0.00000E+00	 0.00000E+00	 1.37820E+03	 1.02990E+02	 2.37448E+00
     0.044	 5.89909E+00	-4.41523E+00	-6.33928E-01	 2.10509E+01	 4.55382E+01	 1.09722E+00	 2.17370E-01	 1.10208E+00	 1.91256E-01	 4.80000E+00	-0.00000E+00	 0.00000E+00	 5.32253E+01	 1.39090E+01	 5.05960E-01	 1.18247E+01	 1.43104E+02	 1.54796E+00	 3.21276E-02	 1.52170E+00	 2.85759E-01	 4.20000E+00	-0.00000E+00	 0.00000E+00	 2.81409E+02	 7.45389E+01	 1.09113E+00	 8.41629E+00	 3.00704E+02	 1.32834E+00	 1.84447E-02	 1.31674E+00	 1.76176E-01	 3.66001E+00	-0.00000E+00	 0.00000E+00	 5.63980E+02	 1.12498E+02	 1.73305E+00	 7.45821E+00	 5.19873E+02	 1.22401E+00	 1.80383E-02	 1.21600E+00	 1.40995E-01	 2.73001E+00	-0.00000E+00	 0.00000E+00	 8.87432E+02	 1.46021E+02	 2.23692E+00	 7.64676E+00	 7.99965E+02	 1.13562E+00	 2.14063E-02	 1.12837E+00	 1.29896E-01	 1.64002E+00	-0.00000E+00	 0.00000E+00	 1.19176E+03	 1.71882E+02	 2.60203E+00	 7.64223E+00	 1.13003E+03	 1.05335E+00	 1.82376E-02	 1.04642E+00	 1.22007E-01	 5.90020E-01	-0.00000E+00	 0.00000E+00	 1.44925E+03	 1.84119E+02	 2.86372E+00	 7.50751E+00	 1.51169E+03	 9.69840E-01	 1.41921E-02	 9.63380E-01	 1.12645E-01	-2.69979E-01	-0.00000E+00	 0.00000E+00	 1.62135E+03	 1.81839E+02	 3.00338E+00	 7.18093E+00	 1.95694E+03	 8.82031E-01	 1.29092E-02	 8.76727E-01	 9.74486E-02	-7.69983E-01	-0.00000E+00	 0.00000E+00	 1.67413E+03	 1.63337E+02	 2.99244E+00	 6.67978E+00	 2.47156E+03	 7.91439E-01	 1.32404E-02	 7.87607E-01	 7.89099E-02	-9.19991E-01	-0.00000E+00	 0.00000E+00	 1.59567E+03	 1.34030E+02	 2.82490E+00	 5.84499E+00	 3.04560E+03	 7.30643E-01	 7.91943E-03	 7.27651E-01	 6.65285E-02	-9.70004E-01	-0.00000E+00	 0.00000E+00	 1.37560E+03	 1.02321E+02	 2.37476E+00
     0.048	 5.94502E+00	-4.42768E+00	-6.65091E-01	 2.09882E+01	 4.54248E+01	 1.09681E+00	 2.16166E-01	 1.10146E+00	 1.91025E-01	 4.80000E+00	-0.00000E+00	 0.00000E+00	 5.30638E+01	 1.38605E+01	 5.05330E-01	 1.18219E+01	 1.42979E+02	 1.58185E+00	 3.29530E-02	 1.55505E+00	 2.91820E-01	 4.20000E+00	-0.00000E+00	 0.00000E+00	 2.87327E+02	 7.60678E+01	 1.09065E+00	 8.44156E+00	 3.00520E+02	 1.32974E+00	 1.86974E-02	 1.31808E+00	 1.76712E-01	 3.66001E+00	-0.00000E+00	 0.00000E+00	 5.64200E+02	 1.12697E+02	 1.73252E+00	 7.50277E+00	 5.19620E+02	 1.22645E+00	 1.83909E-02	 1.21835E+00	 1.41910E-01	 2.73001E+00	-0.00000E+00	 0.00000E+00	 8.88696E+02	 1.46703E+02	 2.23638E+00	 7.72521E+00	 7.99594E+02	 1.14114E+00	 2.19705E-02	 1.13373E+00	 1.31623E-01	 1.64002E+00	-0.00000E+00	 0.00000E+00	 1.19684E+03	 1.73795E+02	 2.60142E+00	 7.72352E+00	 1.12913E+03	 1.06008E+00	 1.89467E-02	 1.05301E+00	 1.23693E-01	 5.90027E-01	-0.00000E+00	 0.00000E+00	 1.45719E+03	 1.86402E+02	 2.86258E+00	 7.55273E+00	 1.51052E+03	 9.73701E-01	 1.46151E-02	 9.67175E-01	 1.13494E-01	-2.69972E-01	-0.00000E+00	 0.00000E+00	 1.62648E+03	 1.83095E+02	 3.00222E+00	 7.18769E+00	 1.95708E+03	 8.82618E-01	 1.30629E-02	 8.77317E-01	 9.74730E-02	-7.69976E-01	-0.00000E+00	 0.00000E+00	 1.67538E+03	 1.63381E+02	 2.99255E+00	 6.66591E+00	 2.47162E+03	 7.90787E-01	 1.32663E-02	 7.86981E-01	 7.86178E-02	-9.19987E-01	-0.00000E+00	 0.00000E+00	 1.59444E+03	 1.33463E+02	 2.82493E+00	 5.81791E+00	 3.04605E+03	 7.29425E-01	 7.78763E-03	 7.26457E-01	 6.61924E-02	-9.70003E-01	-0.00000E+00	 0.00000E+00	 1.37354E+03	 1.01739E+02	 2.37493E+00
     0.052	 5.98518E+00	-4.49378E+00	-6.71166E-01	 2.09237E+01	 4.53217E+01	 1.09052E+00	 2.13197E-01	 1.09475E+00	 1.90313E-01	 4.80000E+00	-0.00000E+00	 0.00000E+00	 5.26187E+01	 1.37668E+01	 5.04756E-01	 1.18020E+01	 1.42863E+02	 1.58534E+00	 3.23123E-02	 1.55843E+00	 2.92621E-01	 4.20000E+00	-0.00000E+00	 0.00000E+00	 2.87717E+02	 7.62031E+01	 1.09022E+00	 8.46534E+00	 3.00345E+02	 1.32993E+00	 1.88976E-02	 1.31823E+00	 1.77089E-01	 3.66001E+00	-0.00000E+00	 0.00000E+00	 5.63923E+02	 1.12798E+02	 1.73201E+00	 7.54462E+00	 5.19388E+02	 1.22896E+00	 1.86737E-02	 1.22077E+00	 1.42848E-01	 2.73002E+00	-0.00000E+00	 0.00000E+00	 8.90038E+02	 1.47410E+02	 2.23588E+00	 7.80063E+00	 7.99251E+02	 1.14671E+00	 2.24580E-02	 1.13915E+00	 1.33389E-01	 1.64003E+00	-0.00000E+00	 0.00000E+00	 1.20200E+03	 1.75754E+02	 2.60087E+00	 7.80813E+00	 1.12821E+03	 1.06713E+00	 1.96761E-02	 1.05991E+00	 1.25482E-01	 5.90036E-01	-0.00000E+00	 0.00000E+00	 1.46553E+03	 1.88826E+02	 2.86141E+00	 7.60190E+00	 1.50931E+03	 9.77838E-01	 1.50647E-02	 9.71237E-01	 1.14425E-01	-2.69962E-01	-0.00000E+00	 0.00000E+00	 1.63201E+03	 1.84481E+02	 3.00101E+00	 7.19894E+00	 1.95719E+03	 8.83496E-01	 1.32530E-02	 8.78192E-01	 9.75666E-02	-7.69966E-01	-0.00000E+00	 0.00000E+00	 1.67715E+03	 1.63547E+02	 2.99264E+00	 6.65644E+00	 2.47153E+03	 7.91087E-01	 1.33127E-02	 7.87298E-01	 7.84763E-02	-9.19978E-01	-0.00000E+00	 0.00000E+00	 1.59501E+03	 1.33162E+02	 2.82488E+00	 5.79688E+00	 3.04253E+03	 7.28487E-01	 7.71172E-03	 7.25541E-01	 6.59065E-02	-9.69998E-01	-0.00000E+00	 0.00000E+00	 1.37021E+03	 1.01112E+02	 2.37356E+00
     0.056	 6.02179E+00	-4.56800E+00	-6.70442E-01	 2.08552E+01	 4.52238E+01	 1.09399E+00	 2.13069E-01	 1.09817E+00	 1.90359E-01	 4.80000E+00	-0.00000E+00	 0.00000E+00	 5.26714E+01	 1.37533E+01	 5.04211E-01	 1.17793E+01	 1.42755E+02	 1.54445E+00	 3.01842E-02	 1.51808E+00	 2.85739E-01	 4.20000E+00	-0.00000E+00	 0.00000E+00	 2.80047E+02	 7.43038E+01	 1.08980E+00	 8.48617E+00	 3.00191E+02	 1.33121E+00	 1.90349E-02	 1.31944E+00	 1.77621E-01	 3.66001E+00	-0.00000E+00	 0.00000E+00	 5.64144E+02	 1.13003E+02	 1.73157E+00	 7.58318E+00	 5.19177E+02	 1.23140E+00	 1.88795E-02	 1.22313E+00	 1.43788E-01	 2.73002E+00	-0.00000E+00	 0.00000E+00	 8.91368E+02	 1.48122E+02	 2.23542E+00	 7.87229E+00	 7.98944E+02	 1.15219E+00	 2.28603E-02	 1.14446E+00	 1.35165E-01	 1.64004E+00	-0.00000E+00	 0.00000E+00	 1.20711E+03	 1.77727E+02	 2.60036E+00	 7.89567E+00	 1.12728E+03	 1.07450E+00	 2.04217E-02	 1.06712E+00	 1.27376E-01	 5.90045E-01	-0.00000E+00	 0.00000E+00	 1.47427E+03	 1.91394E+02	 2.86024E+00	 7.64925E+00	 1.50834E+03	 9.82331E-01	 1.54515E-02	 9.75647E-01	 1.15443E-01	-2.69951E-01	-0.00000E+00	 0.00000E+00	 1.63836E+03	 1.86035E+02	 3.00005E+00	 7.21486E+00	 1.95725E+03	 8.84614E-01	 1.34739E-02	 8.79302E-01	 9.77319E-02	-7.69955E-01	-0.00000E+00	 0.00000E+00	 1.67932E+03	 1.63838E+02	 2.99268E+00	 6.60566E+00	 2.46956E+03	 7.88754E-01	 1.27780E-02	 7.84988E-01	 7.80414E-02	-9.19969E-01	-0.00000E+00	 0.00000E+00	 1.58906E+03	 1.32252E+02	 2.82375E+00	 5.77470E+00	 3.03842E+03	 7.27349E-01	 7.60601E-03	 7.24423E-01	 6.56163E-02	-9.69992E-01	-0.00000E+00	 0.00000E+00	 1.36625E+03	 1.00465E+02	 2.37196E+00
     0.060	 6.05521E+00	-4.64065E+00	-6.63278E-01	 2.07834E+01	 4.51334E+01	 1.07887E+00	 2.07401E-01	 1.08226E+00	 1.88918E-01	 4.80000E+00	-0.00000E+00	 0.00000E+00	 5.17992E+01	 1.35909E+01	 5.03707E-01	 1.17536E+01	 1.42654E+02	 1.52049E+00	 2.86021E-02	 1.49444E+00	 2.81726E-01	 4.20000E+00	-0.00000E+00	 0.00000E+00	 2.75484E+02	 7.31766E+01	 1.08942E+00	 8.50449E+00	 3.00050E+02	 1.33167E+00	 1.91067E-02	 1.31986E+00	 1.78041E-01	 3.66001E+00	-0.00000E+00	 0.00000E+00	 5.64046E+02	 1.13143E+02	 1.73116E+00	 7.61786E+00	 5.18970E+02	 1.23360E+00	 1.89996E-02	 1.22523E+00	 1.44700E-01	 2.73003E+00	-0.00000E+00	 0.00000E+00	 8.92520E+02	 1.48804E+02	 2.23498E+00	 7.93919E+00	 7.98654E+02	 1.15742E+00	 2.31641E-02	 1.14952E+00	 1.36923E-01	 1.64004E+00	-0.00000E+00	 0.00000E+00	 1.21198E+03	 1.79676E+02	 2.59989E+00	 7.98611E+00	 1.12635E+03	 1.08211E+00	 2.11843E-02	 1.07456E+00	 1.29363E-01	 5.90057E-01	-0.00000E+00	 0.00000E+00	 1.48331E+03	 1.94087E+02	 2.85905E+00	 7.69862E+00	 1.50745E+03	 9.86025E-01	 1.58308E-02	 9.79258E-01	 1.16402E-01	-2.69937E-01	-0.00000E+00	 0.00000E+00	 1.64347E+03	 1.87507E+02	 2.99917E+00	 7.21083E+00	 1.95723E+03	 8.85376E-01	 1.33780E-02	 8.80053E-01	 9.78610E-02	-7.69941E-01	-0.00000E+00	 0.00000E+00	 1.68074E+03	 1.64064E+02	 2.99266E+00	 6.52987E+00	 2.46698E+03	 7.81885E-01	 1.19607E-02	 7.78173E-01	 7.70338E-02	-9.19956E-01	-0.00000E+00	 0.00000E+00	 1.57361E+03	 1.30301E+02	 2.82228E+00	 5.75025E+00	 3.03454E+03	 7.25784E-01	 7.47450E-03	 7.22881E-01	 6.52812E-02	-9.69981E-01	-0.00000E+00	 0.00000E+00	 1.36159E+03	 9.97555E+01	 2.37044E+00
     0.064	 6.07819E+00	-4.71262E+00	-6.41134E-01	 2.07072E+01	 4.50511E+01	 1.06870E+00	 2.03157E-01	 1.07150E+00	 1.87854E-01	 4.80000E+00	-0.00000E+00	 0.00000E+00	 5.11874E+01	 1.34707E+01	 5.03247E-01	 1.17242E+01	 1.42564E+02	 1.51466E+00	 2.75615E-02	 1.48866E+00	 2.80795E-01	 4.20001E+00	-0.00000E+00	 0.00000E+00	 2.74243E+02	 7.28769E+01	 1.08907E+00	 8.51935E+00	 2.99920E+02	 1.33226E+00	 1.91029E-02	 1.32039E+00	 1.78473E-01	 3.66002E+00	-0.00000E+00	 0.00000E+00	 5.64019E+02	 1.13295E+02	 1.73079E+00	 7.64810E+00	 5.18793E+02	 1.23543E+00	 1.90280E-02	 1.22697E+00	 1.45563E-01	 2.73003E+00	-0.00000E+00	 0.00000E+00	 8.93465E+02	 1.49447E+02	 2.23459E+00	 8.00123E+00	 7.98417E+02	 1.16211E+00	 2.33717E-02	 1.15405E+00	 1.38615E-01	 1.64005E+00	-0.00000E+00	 0.00000E+00	 1.21635E+03	 1.81549E+02	 2.59951E+00	 8.07951E+00	 1.12543E+03	 1.08997E+00	 2.19676E-02	 1.08224E+00	 1.31443E-01	 5.90070E-01	-0.00000E+00	 0.00000E+00	 1.49267E+03	 1.96911E+02	 2.85788E+00	 7.75307E+00	 1.50652E+03	 9.89968E-01	 1.62681E-02	 9.83113E-01	 1.17431E-01	-2.69921E-01	-0.00000E+00	 0.00000E+00	 1.64892E+03	 1.89086E+02	 2.99823E+00	 7.10989E+00	 1.95715E+03	 8.80513E-01	 1.18894E-02	 8.75214E-01	 9.71855E-02	-7.69923E-01	-0.00000E+00	 0.00000E+00	 1.67143E+03	 1.62894E+02	 2.99260E+00	 6.45288E+00	 2.46476E+03	 7.75063E-01	 1.12587E-02	 7.71418E-01	 7.59188E-02	-9.19938E-01	-0.00000E+00	 0.00000E+00	 1.55853E+03	 1.28153E+02	 2.82100E+00	 5.71813E+00	 3.03091E+03	 7.23611E-01	 7.27302E-03	 7.20735E-01	 6.48598E-02	-9.69966E-01	-0.00000E+00	 0.00000E+00	 1.35592E+03	 9.89135E+01	 2.36902E+00
     0.068	 6.09439E+00	-4.77762E+00	-6.23531E-01	 2.06250E+01	 4.49745E+01	 1.06680E+00	 2.01252E-01	 1.06931E+00	 1.87426E-01	 4.80000E+00	-0.00000E+00	 0.00000E+00	 5.09962E+01	 1.34182E+01	 5.02819E-01	 1.16901E+01	 1.42479E+02	 1.51336E+00	 2.65845E-02	 1.48736E+00	 2.80602E-01	 4.20001E+00	-0.00000E+00	 0.00000E+00	 2.73840E+02	 7.27798E+01	 1.08875E+00	 8.52992E+00	 2.99807E+02	 1.33299E+00	 1.90099E-02	 1.32107E+00	 1.78918E-01	 3.66002E+00	-0.00000E+00	 0.00000E+00	 5.64088E+02	 1.13462E+02	 1.73046E+00	 7.67337E+00	 5.18639E+02	 1.23688E+00	 1.89593E-02	 1.22833E+00	 1.46365E-01	 2.73004E+00	-0.00000E+00	 0.00000E+00	 8.94167E+02	 1.50037E+02	 2.23426E+00	 8.05728E+00	 7.98209E+02	 1.16659E+00	 2.34743E-02	 1.15836E+00	 1.40270E-01	 1.64006E+00	-0.00000E+00	 0.00000E+00	 1.22054E+03	 1.83383E+02	 2.59917E+00	 8.17579E+00	 1.12450E+03	 1.09814E+00	 2.27742E-02	 1.09022E+00	 1.33624E-01	 5.90083E-01	-0.00000E+00	 0.00000E+00	 1.50241E+03	 1.99871E+02	 2.85670E+00	 7.75322E+00	 1.50595E+03	 9.95509E-01	 1.58356E-02	 9.88545E-01	 1.18610E-01	-2.69905E-01	-0.00000E+00	 0.00000E+00	 1.65740E+03	 1.90947E+02	 2.99767E+00	 7.01028E+00	 1.95690E+03	 8.64801E-01	 1.05639E-02	 8.59625E-01	 9.50618E-02	-7.69905E-01	-0.00000E+00	 0.00000E+00	 1.64143E+03	 1.59224E+02	 2.99241E+00	 6.37494E+00	 2.46289E+03	 7.70084E-01	 1.06551E-02	 7.66505E-01	 7.49165E-02	-9.19918E-01	-0.00000E+00	 0.00000E+00	 1.54741E+03	 1.26195E+02	 2.81994E+00	 5.68255E+00	 3.02761E+03	 7.21032E-01	 7.06934E-03	 7.18189E-01	 6.43596E-02	-9.69947E-01	-0.00000E+00	 0.00000E+00	 1.34965E+03	 9.79485E+01	 2.36773E+00
     0.072	 6.10339E+00	-4.83579E+00	-6.10138E-01	 2.05381E+01	 4.49069E+01	 1.06504E+00	 1.99327E-01	 1.06727E+00	 1.86991E-01	 4.80000E+00	-0.00000E+00	 0.00000E+00	 5.08228E+01	 1.33688E+01	 5.02441E-01	 1.16526E+01	 1.42408E+02	 1.50801E+00	 2.54434E-02	 1.48207E+00	 2.79666E-01	 4.20001E+00	-0.00000E+00	 0.00000E+00	 2.72728E+02	 7.24962E+01	 1.08847E+00	 8.53676E+00	 2.99714E+02	 1.33201E+00	 1.88280E-02	 1.32005E+00	 1.79110E-01	 3.66002E+00	-0.00000E+00	 0.00000E+00	 5.63468E+02	 1.13482E+02	 1.73019E+00	 7.69373E+00	 5.18496E+02	 1.23766E+00	 1.87994E-02	 1.22904E+00	 1.47065E-01	 2.73005E+00	-0.00000E+00	 0.00000E+00	 8.94410E+02	 1.50533E+02	 2.23396E+00	 8.10766E+00	 7.98059E+02	 1.17044E+00	 2.34804E-02	 1.16205E+00	 1.41826E-01	 1.64007E+00	-0.00000E+00	 0.00000E+00	 1.22417E+03	 1.85105E+02	 2.59892E+00	 8.27520E+00	 1.12358E+03	 1.10659E+00	 2.36106E-02	 1.09847E+00	 1.35904E-01	 5.90098E-01	-0.00000E+00	 0.00000E+00	 1.51253E+03	 2.02969E+02	 2.85553E+00	 7.63390E+00	 1.50621E+03	 9.90957E-01	 1.34592E-02	 9.83963E-01	 1.18302E-01	-2.69886E-01	-0.00000E+00	 0.00000E+00	 1.65001E+03	 1.90500E+02	 2.99793E+00	 6.91188E+00	 1.95651E+03	 8.55135E-01	 9.55565E-03	 8.50070E-01	 9.34230E-02	-7.69882E-01	-0.00000E+00	 0.00000E+00	 1.62285E+03	 1.56313E+02	 2.99211E+00	 6.29604E+00	 2.46139E+03	 7.65500E-01	 1.01005E-02	 7.61991E-01	 7.39094E-02	-9.19894E-01	-0.00000E+00	 0.00000E+00	 1.53734E+03	 1.24237E+02	 2.81908E+00	 5.64401E+00	 3.02462E+03	 7.18331E-01	 6.86882E-03	 7.15524E-01	 6.38104E-02	-9.69923E-01	-0.00000E+00	 0.00000E+00	 1.34330E+03	 9.69073E+01	 2.36656E+00
     0.076	 6.10480E+00	-4.88660E+00	-6.01247E-01	 2.04463E+01	 4.48468E+01	 1.06363E+00	 1.97431E-01	 1.06559E+00	 1.86564E-01	 4.80000E+00	-0.00000E+00	 0.00000E+00	 5.06751E+01	 1.33234E+01	 5.02105E-01	 1.16114E+01	 1.42342E+02	 1.50343E+00	 2.42791E-02	 1.47755E+00	 2.78816E-01	 4.20001E+00	-0.00000E+00	 0.00000E+00	 2.71771E+02	 7.22424E+01	 1.08823E+00	 8.54059E+00	 2.99636E+02	 1.32992E+00	 1.85833E-02	 1.31794E+00	 1.79130E-01	 3.66003E+00	-0.00000E+00	 0.00000E+00	 5.62411E+02	 1.13403E+02	 1.72997E+00	 7.70930E+00	 5.18384E+02	 1.23799E+00	 1.85586E-02	 1.22929E+00	 1.47682E-01	 2.73005E+00	-0.00000E+00	 0.00000E+00	 8.94382E+02	 1.50960E+02	 2.23371E+00	 8.15162E+00	 7.97963E+02	 1.17403E+00	 2.33886E-02	 1.16548E+00	 1.43317E-01	 1.64008E+00	-0.00000E+00	 0.00000E+00	 1.22760E+03	 1.86763E+02	 2.59877E+00	 8.37733E+00	 1.12268E+03	 1.11542E+00	 2.44737E-02	 1.10708E+00	 1.38295E-01	 5.90114E-01	-0.00000E+00	 0.00000E+00	 1.52315E+03	 2.06223E+02	 2.85439E+00	 7.51541E+00	 1.50646E+03	 9.64601E-01	 1.12323E-02	 9.57784E-01	 1.15027E-01	-2.69865E-01	-0.00000E+00	 0.00000E+00	 1.60637E+03	 1.85250E+02	 2.99818E+00	 6.81581E+00	 1.95594E+03	 8.49654E-01	 8.77941E-03	 8.44692E-01	 9.21178E-02	-7.69857E-01	-0.00000E+00	 0.00000E+00	 1.61209E+03	 1.53919E+02	 2.99168E+00	 6.21583E+00	 2.46025E+03	 7.60714E-01	 9.56822E-03	 7.57278E-01	 7.28536E-02	-9.19865E-01	-0.00000E+00	 0.00000E+00	 1.52710E+03	 1.22206E+02	 2.81842E+00	 5.60223E+00	 3.02193E+03	 7.15396E-01	 6.66587E-03	 7.12630E-01	 6.32041E-02	-9.69893E-01	-0.00000E+00	 0.00000E+00	 1.33667E+03	 9.57780E+01	 2.36551E+00
     0.080	 6.09830E+00	-4.93074E+00	-5.96052E-01	 2.03601E+01	 4.47739E+01	 1.05767E+00	 1.94362E-01	 1.05921E+00	 1.85765E-01	 4.80000E+00	-0.00000E+00	 0.00000E+00	 5.02888E+01	 1.32375E+01	 5.01697E-01	 1.15669E+01	 1.42288E+02	 1.49864E+00	 2.30794E-02	 1.47283E+00	 2.77884E-01	 4.20001E+00	-0.00000E+00	 0.00000E+00	 2.70801E+02	 7.19766E+01	 1.08802E+00	 8.54164E+00	 2.99576E+02	 1.32821E+00	 1.82976E-02	 1.31619E+00	 1.79182E-01	 3.66003E+00	-0.00000E+00	 0.00000E+00	 5.61547E+02	 1.13354E+02	 1.72979E+00	 7.72049E+00	 5.18304E+02	 1.23799E+00	 1.82521E-02	 1.22922E+00	 1.48225E-01	 2.73006E+00	-0.00000E+00	 0.00000E+00	 8.94172E+02	 1.51332E+02	 2.23354E+00	 8.18978E+00	 7.97927E+02	 1.17706E+00	 2.32139E-02	 1.16836E+00	 1.44698E-01	 1.64009E+00	-0.00000E+00	 0.00000E+00	 1.23055E+03	 1.88302E+02	 2.59871E+00	 8.28571E+00	 1.12255E+03	 1.13874E+00	 2.20211E-02	 1.13003E+00	 1.42312E-01	 5.90129E-01	-0.00000E+00	 0.00000E+00	 1.55453E+03	 2.12059E+02	 2.85423E+00	 7.39866E+00	 1.50671E+03	 9.48807E-01	 9.51632E-03	 9.42133E-01	 1.12743E-01	-2.69844E-01	-0.00000E+00	 0.00000E+00	 1.58039E+03	 1.81576E+02	 2.99843E+00	 6.72576E+00	 1.95528E+03	 8.44482E-01	 8.19133E-03	 8.39630E-01	 9.07684E-02	-7.69830E-01	-0.00000E+00	 0.00000E+00	 1.60188E+03	 1.51427E+02	 2.99118E+00	 6.13549E+00	 2.45943E+03	 7.55767E-01	 9.06428E-03	 7.52407E-01	 7.17639E-02	-9.19834E-01	-0.00000E+00	 0.00000E+00	 1.51675E+03	 1.20131E+02	 2.81795E+00	 5.55755E+00	 3.01951E+03	 7.12197E-01	 6.46379E-03	 7.09476E-01	 6.25398E-02	-9.69859E-01	-0.00000E+00	 0.00000E+00	 1.32967E+03	 9.45588E+01	 2.36456E+00
     0.084	 6.07177E+00	-4.95591E+00	-5.96754E-01	 2.02722E+01	 4.46958E+01	 1.05801E+00	 1.93094E-01	 1.05937E+00	 1.85446E-01	 4.80000E+00	-0.00000E+00	 0.00000E+00	 5.02100E+01	 1.31997E+01	 5.01259E-01	 1.15181E+01	 1.42245E+02	 1.49590E+00	 2.18828E-02	 1.47014E+00	 2.77255E-01	 4.20001E+00	-0.00000E+00	 0.00000E+00	 2.70225E+02	 7.18005E+01	 1.08785E+00	 8.53739E+00	 2.99540E+02	 1.32923E+00	 1.79365E-02	 1.31716E+00	 1.79593E-01	 3.66003E+00	-0.00000E+00	 0.00000E+00	 5.61884E+02	 1.13544E+02	 1.72969E+00	 7.72478E+00	 5.18236E+02	 1.23903E+00	 1.78437E-02	 1.23018E+00	 1.48862E-01	 2.73006E+00	-0.00000E+00	 0.00000E+00	 8.94740E+02	 1.51812E+02	 2.23340E+00	 8.21908E+00	 7.97953E+02	 1.18036E+00	 2.29155E-02	 1.17151E+00	 1.46062E-01	 1.64011E+00	-0.00000E+00	 0.00000E+00	 1.23388E+03	 1.89846E+02	 2.59875E+00	 8.15117E+00	 1.12263E+03	 1.10459E+00	 1.82087E-02	 1.09601E+00	 1.38590E-01	 5.90147E-01	-0.00000E+00	 0.00000E+00	 1.50783E+03	 2.06464E+02	 2.85433E+00	 7.28046E+00	 1.50698E+03	 9.42640E-01	 8.12610E-03	 9.36070E-01	 1.11397E-01	-2.69820E-01	-0.00000E+00	 0.00000E+00	 1.57049E+03	 1.79399E+02	 2.99869E+00	 6.63356E+00	 1.95486E+03	 8.39359E-01	 7.64159E-03	 8.34622E-01	 8.93714E-02	-7.69800E-01	-0.00000E+00	 0.00000E+00	 1.59195E+03	 1.48862E+02	 2.99085E+00	 6.05354E+00	 2.45894E+03	 7.50721E-01	 8.56396E-03	 7.47438E-01	 7.06532E-02	-9.19797E-01	-0.00000E+00	 0.00000E+00	 1.50642E+03	 1.18033E+02	 2.81767E+00	 5.49878E+00	 3.01786E+03	 7.07991E-01	 6.14754E-03	 7.05322E-01	 6.17236E-02	-9.69818E-01	-0.00000E+00	 0.00000E+00	 1.32115E+03	 9.31131E+01	 2.36391E+00
     0.088	 6.00109E+00	-4.93632E+00	-6.07983E-01	 2.01786E+01	 4.46220E+01	 1.06031E+00	 1.92291E-01	 1.06156E+00	 1.85263E-01	 4.80000E+00	-0.00000E+00	 0.00000E+00	 5.02330E+01	 1.31779E+01	 5.00845E-01	 1.14647E+01	 1.42209E+02	 1.49312E+00	 2.06203E-02	 1.46742E+00	 2.76568E-01	 4.20001E+00	-0.00000E+00	 0.00000E+00	 2.69660E+02	 7.16173E+01	 1.08772E+00	 8.53006E+00	 2.99514E+02	 1.32697E+00	 1.75037E-02	 1.31489E+00	 1.79517E-01	 3.66003E+00	-0.00000E+00	 0.00000E+00	 5.60860E+02	 1.13439E+02	 1.72962E+00	 7.72418E+00	 5.18203E+02	 1.23819E+00	 1.73580E-02	 1.22929E+00	 1.49218E-01	 2.73007E+00	-0.00000E+00	 0.00000E+00	 8.94019E+02	 1.52032E+02	 2.23333E+00	 8.24213E+00	 7.98051E+02	 1.18206E+00	 2.25260E-02	 1.17308E+00	 1.47162E-01	 1.64012E+00	-0.00000E+00	 0.00000E+00	 1.23565E+03	 1.91079E+02	 2.59891E+00	 8.01789E+00	 1.12277E+03	 1.06451E+00	 1.49206E-02	 1.05619E+00	 1.33706E-01	 5.90163E-01	-0.00000E+00	 0.00000E+00	 1.45322E+03	 1.99196E+02	 2.85451E+00	 7.16418E+00	 1.50727E+03	 9.36720E-01	 6.96201E-03	 9.30275E-01	 1.09913E-01	-2.69797E-01	-0.00000E+00	 0.00000E+00	 1.56107E+03	 1.76994E+02	 2.99899E+00	 6.54192E+00	 1.95466E+03	 8.33196E-01	 7.14894E-03	 8.28585E-01	 8.78238E-02	-7.69769E-01	-0.00000E+00	 0.00000E+00	 1.58026E+03	 1.46055E+02	 2.99070E+00	 5.97184E+00	 2.45874E+03	 7.45568E-01	 8.08642E-03	 7.42364E-01	 6.95261E-02	-9.19759E-01	-0.00000E+00	 0.00000E+00	 1.49605E+03	 1.15921E+02	 2.81756E+00	 5.40197E+00	 3.01795E+03	 7.00828E-01	 5.51565E-03	 6.98235E-01	 6.04866E-02	-9.69774E-01	-0.00000E+00	 0.00000E+00	 1.30790E+03	 9.10276E+01	 2.36395E+00
     0.092	 5.92398E+00	-4.90851E+00	-6.24042E-01	 2.00857E+01	 4.45572E+01	 1.05712E+00	 1.89964E-01	 1.05807E+00	 1.84633E-01	 4.80000E+00	-0.00000E+00	 0.00000E+00	 4.99950E+01	 1.31145E+01	 5.00481E-01	 1.14129E+01	 1.42195E+02	 1.47743E+00	 1.91148E-02	 1.45200E+00	 2.73614E-01	 4.20001E+00	-0.00000E+00	 0.00000E+00	 2.66799E+02	 7.08485E+01	 1.08766E+00	 8.52256E+00	 2.99528E+02	 1.32171E+00	 1.70719E-02	 1.30964E+00	 1.78992E-01	 3.66004E+00	-0.00000E+00	 0.00000E+00	 5.58644E+02	 1.13075E+02	 1.72966E+00	 7.72075E+00	 5.18211E+02	 1.23605E+00	 1.68484E-02	 1.22711E+00	 1.49362E-01	 2.73008E+00	-0.00000E+00	 0.00000E+00	 8.92432E+02	 1.52064E+02	 2.23334E+00	 8.19991E+00	 7.98280E+02	 1.19413E+00	 2.10682E-02	 1.18493E+00	 1.49463E-01	 1.64013E+00	-0.00000E+00	 0.00000E+00	 1.24847E+03	 1.93927E+02	 2.59928E+00	 7.88455E+00	 1.12298E+03	 1.05033E+00	 1.24220E-02	 1.04210E+00	 1.31776E-01	 5.90180E-01	-0.00000E+00	 0.00000E+00	 1.43410E+03	 1.96374E+02	 2.85477E+00	 7.04769E+00	 1.50764E+03	 9.30541E-01	 5.94792E-03	 9.24240E-01	 1.08270E-01	-2.69772E-01	-0.00000E+00	 0.00000E+00	 1.55131E+03	 1.74328E+02	 2.99935E+00	 6.44889E+00	 1.95468E+03	 8.26629E-01	 6.68202E-03	 8.22148E-01	 8.62045E-02	-7.69735E-01	-0.00000E+00	 0.00000E+00	 1.56798E+03	 1.43139E+02	 2.99072E+00	 5.87650E+00	 2.45866E+03	 7.39760E-01	 7.46604E-03	 7.36637E-01	 6.83132E-02	-9.19717E-01	-0.00000E+00	 0.00000E+00	 1.48444E+03	 1.13662E+02	 2.81751E+00	 5.30552E+00	 3.01831E+03	 6.92944E-01	 5.05471E-03	 6.90443E-01	 5.90411E-02	-9.69725E-01	-0.00000E+00	 0.00000E+00	 1.29343E+03	 8.85821E+01	 2.36409E+00
     0.096	 5.84040E+00	-4.87271E+00	-6.44584E-01	 1.99889E+01	 4.44956E+01	 1.05689E+00	 1.88418E-01	 1.05763E+00	 1.84217E-01	 4.80000E+00	-0.00000E+00	 0.00000E+00	 4.99065E+01	 1.30747E+01	 5.00135E-01	 1.13587E+01	 1.42199E+02	 1.47532E+00	 1.79709E-02	 1.44996E+00	 2.72947E-01	 4.20001E+00	-0.00000E+00	 0.00000E+00	 2.66436E+02	 7.06983E+01	 1.08768E+00	 8.51265E+00	 2.99564E+02	 1.32096E+00	 1.66444E-02	 1.30887E+00	 1.79078E-01	 3.66004E+00	-0.00000E+00	 0.00000E+00	 5.58378E+02	 1.13104E+02	 1.72976E+00	 7.71129E+00	 5.18258E+02	 1.23642E+00	 1.62774E-02	 1.22742E+00	 1.49774E-01	 2.73008E+00	-0.00000E+00	 0.00000E+00	 8.92724E+02	 1.52389E+02	 2.23344E+00	 8.01562E+00	 7.98628E+02	 1.20229E+00	 1.68956E-02	 1.19290E+00	 1.50920E-01	 1.64014E+00	-0.00000E+00	 0.00000E+00	 1.25740E+03	 1.95794E+02	 2.59985E+00	 7.74920E+00	 1.12325E+03	 1.04506E+00	 1.02981E-02	 1.03691E+00	 1.30709E-01	 5.90196E-01	-0.00000E+00	 0.00000E+00	 1.42732E+03	 1.94879E+02	 2.85512E+00	 6.92931E+00	 1.50808E+03	 9.23666E-01	 5.03077E-03	 9.17526E-01	 1.06441E-01	-2.69748E-01	-0.00000E+00	 0.00000E+00	 1.54048E+03	 1.71364E+02	 2.99979E+00	 6.35376E+00	 1.95492E+03	 8.19677E-01	 6.22833E-03	 8.15332E-01	 8.45211E-02	-7.69702E-01	-0.00000E+00	 0.00000E+00	 1.55514E+03	 1.40125E+02	 2.99090E+00	 5.77736E+00	 2.45879E+03	 7.32849E-01	 6.84548E-03	 7.29815E-01	 6.69602E-02	-9.19674E-01	-0.00000E+00	 0.00000E+00	 1.47074E+03	 1.11167E+02	 2.81758E+00	 5.20972E+00	 3.01892E+03	 6.86093E-01	 4.69873E-03	 6.83686E-01	 5.76190E-02	-9.69675E-01	-0.00000E+00	 0.00000E+00	 1.28100E+03	 8.61544E+01	 2.36433E+00
     0.100	 5.74602E+00	-4.83465E+00	-6.73171E-01	 1.98856E+01	 4.44413E+01	 1.05763E+00	 1.87040E-01	 1.05819E+00	 1.83858E-01	 4.80000E+00	-0.00000E+00	 0.00000E+00	 4.98739E+01	 1.30438E+01	 4.99830E-01	 1.12994E+01	 1.42213E+02	 1.48098E+00	 1.69408E-02	 1.45559E+00	 2.73564E-01	 4.20001E+00	-0.00000E+00	 0.00000E+00	 2.67504E+02	 7.08976E+01	 1.08773E+00	 8.49739E+00	 2.99619E+02	 1.32386E+00	 1.61550E-02	 1.31171E+00	 1.79641E-01	 3.66004E+00	-0.00000E+00	 0.00000E+00	 5.59685E+02	 1.13445E+02	 1.72992E+00	 7.69467E+00	 5.18340E+02	 1.23668E+00	 1.56066E-02	 1.22763E+00	 1.50118E-01	 2.73009E+00	-0.00000E+00	 0.00000E+00	 8.93007E+02	 1.52672E+02	 2.23362E+00	 7.83338E+00	 7.99009E+02	 1.14390E+00	 1.26596E-02	 1.13495E+00	 1.43364E-01	 1.64015E+00	-0.00000E+00	 0.00000E+00	 1.19690E+03	 1.86134E+02	 2.60047E+00	 7.56470E+00	 1.12366E+03	 1.04330E+00	 7.61845E-03	 1.03523E+00	 1.29794E-01	 5.90213E-01	-0.00000E+00	 0.00000E+00	 1.42553E+03	 1.93665E+02	 2.85564E+00	 6.80980E+00	 1.50862E+03	 9.15741E-01	 4.20523E-03	 9.09779E-01	 1.04407E-01	-2.69722E-01	-0.00000E+00	 0.00000E+00	 1.52801E+03	 1.68072E+02	 3.00032E+00	 6.25713E+00	 1.95538E+03	 8.12347E-01	 5.79455E-03	 8.08139E-01	 8.27781E-02	-7.69667E-01	-0.00000E+00	 0.00000E+00	 1.54176E+03	 1.37022E+02	 2.99125E+00	 5.67721E+00	 2.45915E+03	 7.26223E-01	 6.26213E-03	 7.23281E-01	 6.56095E-02	-9.19629E-01	-0.00000E+00	 0.00000E+00	 1.45777E+03	 1.08677E+02	 2.81780E+00	 5.11244E+00	 3.01915E+03	 6.79166E-01	 4.38870E-03	 6.76855E-01	 5.61497E-02	-9.69621E-01	-0.00000E+00	 0.00000E+00	 1.26827E+03	 8.36292E+01	 2.36442E+00
     0.104	 5.64338E+00	-4.79793E+00	-7.08678E-01	 1.97768E+01	 4.43903E+01	 1.05615E+00	 1.84960E-01	 1.05644E+00	 1.83304E-01	 4.80000E+00	-0.00000E+00	 0.00000E+00	 4.97352E+01	 1.29954E+01	 4.99543E-01	 1.12365E+01	 1.42239E+02	 1.47664E+00	 1.56236E-02	 1.45138E+00	 2.72414E-01	 4.20001E+00	-0.00000E+00	 0.00000E+00	 2.66784E+02	 7.06384E+01	 1.08783E+00	 8.47903E+00	 2.99699E+02	 1.32175E+00	 1.55910E-02	 1.30960E+00	 1.79468E-01	 3.66004E+00	-0.00000E+00	 0.00000E+00	 5.58930E+02	 1.13342E+02	 1.73015E+00	 7.67322E+00	 5.18445E+02	 1.23410E+00	 1.48738E-02	 1.22503E+00	 1.50040E-01	 2.73009E+00	-0.00000E+00	 0.00000E+00	 8.91289E+02	 1.52556E+02	 2.23384E+00	 7.65622E+00	 7.99443E+02	 1.10113E+00	 9.27504E-03	 1.09255E+00	 1.37510E-01	 1.64016E+00	-0.00000E+00	 0.00000E+00	 1.15282E+03	 1.78750E+02	 2.60118E+00	 7.37454E+00	 1.12418E+03	 1.02609E+00	 5.10422E-03	 1.01826E+00	 1.26642E-01	 5.90229E-01	-0.00000E+00	 0.00000E+00	 1.40283E+03	 1.89165E+02	 2.85630E+00	 6.69133E+00	 1.50928E+03	 9.07219E-01	 3.49130E-03	 9.01446E-01	 1.02242E-01	-2.69698E-01	-0.00000E+00	 0.00000E+00	 1.51467E+03	 1.64576E+02	 3.00098E+00	 6.16077E+00	 1.95605E+03	 8.04904E-01	 5.40265E-03	 8.00835E-01	 8.10098E-02	-7.69633E-01	-0.00000E+00	 0.00000E+00	 1.52832E+03	 1.33887E+02	 2.99176E+00	 5.57695E+00	 2.45976E+03	 7.19934E-01	 5.71798E-03	 7.17082E-01	 6.42741E-02	-9.19585E-01	-0.00000E+00	 0.00000E+00	 1.44560E+03	 1.06217E+02	 2.81814E+00	 5.01566E+00	 3.01883E+03	 6.72022E-01	 4.13046E-03	 6.69810E-01	 5.46389E-02	-9.69567E-01	-0.00000E+00	 0.00000E+00	 1.25491E+03	 8.10181E+01	 2.36430E+00
     0.108	 5.53599E+00	-4.75911E+00	-7.47516E-01	 1.96620E+01	 4.43444E+01	 1.05446E+00	 1.82738E-01	 1.05446E+00	 1.82711E-01	 4.80000E+00	-0.00000E+00	 0.00000E+00	 4.95919E+01	 1.29457E+01	 4.99284E-01	 1.11699E+01	 1.42279E+02	 1.47040E+00	 1.42282E-02	 1.44530E+00	 2.70886E-01	 4.20001E+00	-0.00000E+00	 0.00000E+00	 2.65747E+02	 7.02905E+01	 1.08798E+00	 8.45886E+00	 2.99795E+02	 1.31712E+00	 1.50017E-02	 1.30500E+00	 1.78909E-01	 3.66004E+00	-0.00000E+00	 0.00000E+00	 5.57143E+02	 1.13011E+02	 1.73043E+00	 7.64671E+00	 5.18613E+02	 1.23147E+00	 1.40975E-02	 1.22240E+00	 1.49893E-01	 2.73010E+00	-0.00000E+00	 0.00000E+00	 8.89653E+02	 1.52406E+02	 2.23421E+00	 7.48363E+00	 7.99909E+02	 1.08955E+00	 6.55792E-03	 1.08112E+00	 1.35404E-01	 1.64016E+00	-0.00000E+00	 0.00000E+00	 1.14145E+03	 1.76276E+02	 2.60193E+00	 7.19304E+00	 1.12480E+03	 1.00814E+00	 3.07552E-03	 1.00059E+00	 1.23181E-01	 5.90245E-01	-0.00000E+00	 0.00000E+00	 1.37927E+03	 1.84242E+02	 2.85709E+00	 6.57349E+00	 1.51009E+03	 8.98728E-01	 2.86736E-03	 8.93148E-01	 1.00036E-01	-2.69674E-01	-0.00000E+00	 0.00000E+00	 1.50152E+03	 1.61024E+02	 3.00179E+00	 6.06447E+00	 1.95691E+03	 7.97587E-01	 5.04499E-03	 7.93656E-01	 7.92463E-02	-7.69599E-01	-0.00000E+00	 0.00000E+00	 1.51526E+03	 1.30768E+02	 2.99242E+00	 5.47642E+00	 2.46057E+03	 7.13546E-01	 5.21589E-03	 7.10787E-01	 6.29059E-02	-9.19540E-01	-0.00000E+00	 0.00000E+00	 1.43336E+03	 1.03702E+02	 2.81860E+00	 4.92115E+00	 3.01845E+03	 6.64970E-01	 3.92779E-03	 6.62856E-01	 5.31310E-02	-9.69514E-01	-0.00000E+00	 0.00000E+00	 1.24170E+03	 7.84085E+01	 2.36415E+00
     0.112	 5.42370E+00	-4.71721E+00	-7.89008E-01	 1.95405E+01	 4.43038E+01	 1.05304E+00	 1.80492E-01	 1.05276E+00	 1.82115E-01	 4.80000E+00	-0.00000E+00	 0.00000E+00	 4.94675E+01	 1.28986E+01	 4.99056E-01	 1.10995E+01	 1.42341E+02	 1.46514E+00	 1.28240E-02	 1.44020E+00	 2.69475E-01	 4.20001E+00	-0.00000E+00	 0.00000E+00	 2.64931E+02	 6.99881E+01	 1.08822E+00	 8.43405E+00	 2.99926E+02	 1.31664E+00	 1.43712E-02	 1.30451E+00	 1.78898E-01	 3.66005E+00	-0.00000E+00	 0.00000E+00	 5.57177E+02	 1.13042E+02	 1.73080E+00	 7.61400E+00	 5.18813E+02	 1.22971E+00	 1.32607E-02	 1.22062E+00	 1.49791E-01	 2.73010E+00	-0.00000E+00	 0.00000E+00	 8.88702E+02	 1.52328E+02	 2.23464E+00	 7.31511E+00	 8.00441E+02	 1.08420E+00	 4.21032E-03	 1.07591E+00	 1.33871E-01	 1.64017E+00	-0.00000E+00	 0.00000E+00	 1.13673E+03	 1.74610E+02	 2.60280E+00	 7.01935E+00	 1.12554E+03	 9.97757E-01	 1.44203E-03	 9.90455E-01	 1.20499E-01	 5.90260E-01	-0.00000E+00	 0.00000E+00	 1.36621E+03	 1.80515E+02	 2.85803E+00	 6.45505E+00	 1.51106E+03	 8.90108E-01	 2.30201E-03	 8.84724E-01	 9.77818E-02	-2.69650E-01	-0.00000E+00	 0.00000E+00	 1.48831E+03	 1.57405E+02	 3.00275E+00	 5.96748E+00	 1.95796E+03	 7.90246E-01	 4.70723E-03	 7.86453E-01	 7.74755E-02	-7.69565E-01	-0.00000E+00	 0.00000E+00	 1.50228E+03	 1.27646E+02	 2.99322E+00	 5.37547E+00	 2.46159E+03	 7.06849E-01	 4.75784E-03	 7.04186E-01	 6.14821E-02	-9.19496E-01	-0.00000E+00	 0.00000E+00	 1.42061E+03	 1.01091E+02	 2.81919E+00	 4.82867E+00	 3.01811E+03	 6.58052E-01	 3.81073E-03	 6.56037E-01	 5.15953E-02	-9.69460E-01	-0.00000E+00	 0.00000E+00	 1.22875E+03	 7.57439E+01	 2.36401E+00
     0.116	 5.30564E+00	-4.67221E+00	-8.33017E-01	 1.94110E+01	 4.42735E+01	 1.05175E+00	 1.78165E-01	 1.05118E+00	 1.81502E-01	 4.80000E+00	-0.00000E+00	 0.00000E+00	 4.93609E+01	 1.28543E+01	 4.98885E-01	 1.10224E+01	 1.42410E+02	 1.46442E+00	 1.14150E-02	 1.43958E+00	 2.68781E-01	 4.20001E+00	-0.00000E+00	 0.00000E+00	 2.64953E+02	 6.98839E+01	 1.08848E+00	 8.40385E+00	 3.00082E+02	 1.31603E+00	 1.36574E-02	 1.30390E+00	 1.78827E-01	 3.66005E+00	-0.00000E+00	 0.00000E+00	 5.57205E+02	 1.13054E+02	 1.73126E+00	 7.48339E+00	 5.19011E+02	 1.26398E+00	 1.05733E-02	 1.25460E+00	 1.54137E-01	 2.73010E+00	-0.00000E+00	 0.00000E+00	 9.13778E+02	 1.56757E+02	 2.23506E+00	 7.15037E+00	 8.01035E+02	 1.07915E+00	 2.15692E-03	 1.07103E+00	 1.32186E-01	 1.64018E+00	-0.00000E+00	 0.00000E+00	 1.13244E+03	 1.72803E+02	 2.60377E+00	 6.85321E+00	 1.12638E+03	 9.89740E-01	 1.14424E-04	 9.82682E-01	 1.17988E-01	 5.90274E-01	-0.00000E+00	 0.00000E+00	 1.35652E+03	 1.77069E+02	 2.85909E+00	 6.33603E+00	 1.51222E+03	 8.81021E-01	 1.78854E-03	 8.75837E-01	 9.54512E-02	-2.69628E-01	-0.00000E+00	 0.00000E+00	 1.47448E+03	 1.53676E+02	 3.00391E+00	 5.86987E+00	 1.95918E+03	 7.82736E-01	 4.38895E-03	 7.79081E-01	 7.56840E-02	-7.69534E-01	-0.00000E+00	 0.00000E+00	 1.48910E+03	 1.24496E+02	 2.99415E+00	 5.27405E+00	 2.46281E+03	 6.99868E-01	 4.33792E-03	 6.97304E-01	 6.00121E-02	-9.19455E-01	-0.00000E+00	 0.00000E+00	 1.40740E+03	 9.84018E+01	 2.81989E+00	 4.73728E+00	 3.01780E+03	 6.50860E-01	 3.76262E-03	 6.48947E-01	 5.00028E-02	-9.69410E-01	-0.00000E+00	 0.00000E+00	 1.21532E+03	 7.29833E+01	 2.36389E+00
     0.120	 5.18198E+00	-4.62281E+00	-8.78496E-01	 1.92710E+01	 4.42448E+01	 1.05098E+00	 1.75812E-01	 1.05011E+00	 1.80899E-01	 4.80000E+00	-0.00000E+00	 0.00000E+00	 4.92806E+01	 1.28130E+01	 4.98723E-01	 1.09383E+01	 1.42496E+02	 1.46058E+00	 9.83148E-03	 1.43591E+00	 2.67496E-01	 4.20001E+00	-0.00000E+00	 0.00000E+00	 2.64445E+02	 6.96358E+01	 1.08881E+00	 8.36870E+00	 3.00247E+02	 1.31260E+00	 1.28615E-02	 1.30049E+00	 1.78314E-01	 3.66005E+00	-0.00000E+00	 0.00000E+00	 5.56055E+02	 1.12801E+02	 1.73173E+00	 7.33915E+00	 5.19262E+02	 1.22536E+00	 7.64543E-03	 1.21629E+00	 1.48947E-01	 2.73011E+00	-0.00000E+00	 0.00000E+00	 8.86327E+02	 1.51690E+02	 2.23561E+00	 6.98860E+00	 8.01650E+02	 1.07342E+00	 3.51898E-04	 1.06549E+00	 1.30256E-01	 1.64019E+00	-0.00000E+00	 0.00000E+00	 1.12749E+03	 1.70718E+02	 2.60477E+00	 6.69457E+00	 1.12733E+03	 9.81583E-01	-9.53296E-04	 9.74779E-01	 1.15376E-01	 5.90287E-01	-0.00000E+00	 0.00000E+00	 1.34677E+03	 1.73493E+02	 2.86030E+00	 6.21626E+00	 1.51357E+03	 8.71595E-01	 1.31972E-03	 8.66613E-01	 9.30657E-02	-2.69607E-01	-0.00000E+00	 0.00000E+00	 1.46025E+03	 1.49869E+02	 3.00525E+00	 5.77160E+00	 1.96056E+03	 7.75116E-01	 4.08950E-03	 7.71598E-01	 7.38793E-02	-7.69504E-01	-0.00000E+00	 0.00000E+00	 1.47581E+03	 1.21329E+02	 2.99521E+00	 5.17222E+00	 2.46423E+03	 6.92660E-01	 3.95284E-03	 6.90196E-01	 5.85063E-02	-9.19415E-01	-0.00000E+00	 0.00000E+00	 1.39382E+03	 9.56527E+01	 2.82070E+00	 4.64673E+00	 3.01769E+03	 6.43139E-01	 3.73908E-03	 6.41328E-01	 4.83752E-02	-9.69362E-01	-0.00000E+00	 0.00000E+00	 1.20097E+03	 7.01786E+01	 2.36385E+00
     0.124	 5.05153E+00	-4.56957E+00	-9.25813E-01	 1.91264E+01	 4.42262E+01	 1.04636E+00	 1.72390E-01	 1.04508E+00	 1.79969E-01	 4.80000E+00	-0.00000E+00	 0.00000E+00	 4.90241E+01	 1.27432E+01	 4.98619E-01	 1.08521E+01	 1.42604E+02	 1.44432E+00	 8.03223E-03	 1.42000E+00	 2.64039E-01	 4.20001E+00	-0.00000E+00	 0.00000E+00	 2.61720E+02	 6.88243E+01	 1.08923E+00	 8.33134E+00	 3.00444E+02	 1.30596E+00	 1.20512E-02	 1.29392E+00	 1.77306E-01	 3.66005E+00	-0.00000E+00	 0.00000E+00	 5.53611E+02	 1.12258E+02	 1.73230E+00	 7.19904E+00	 5.19560E+02	 1.17323E+00	 5.20536E-03	 1.16463E+00	 1.41860E-01	 2.73011E+00	-0.00000E+00	 0.00000E+00	 8.49192E+02	 1.44773E+02	 2.23625E+00	 6.83285E+00	 8.02341E+02	 1.06608E+00	-1.17082E-03	 1.05837E+00	 1.27997E-01	 1.64020E+00	-0.00000E+00	 0.00000E+00	 1.12096E+03	 1.68248E+02	 2.60589E+00	 6.54511E+00	 1.12840E+03	 9.72941E-01	-1.76851E-03	 9.66398E-01	 1.12658E-01	 5.90299E-01	-0.00000E+00	 0.00000E+00	 1.33648E+03	 1.69774E+02	 2.86165E+00	 6.09662E+00	 1.51513E+03	 8.61923E-01	 9.03965E-04	 8.57145E-01	 9.06420E-02	-2.69588E-01	-0.00000E+00	 0.00000E+00	 1.44576E+03	 1.46012E+02	 3.00679E+00	 5.67307E+00	 1.96207E+03	 7.67434E-01	 3.81383E-03	 7.64052E-01	 7.20672E-02	-7.69477E-01	-0.00000E+00	 0.00000E+00	 1.46248E+03	 1.18153E+02	 2.99636E+00	 5.07019E+00	 2.46582E+03	 6.85281E-01	 3.60208E-03	 6.82918E-01	 5.69744E-02	-9.19379E-01	-0.00000E+00	 0.00000E+00	 1.37999E+03	 9.28599E+01	 2.82161E+00	 4.55589E+00	 3.01765E+03	 6.34938E-01	 3.72231E-03	 6.33228E-01	 4.67235E-02	-9.69318E-01	-0.00000E+00	 0.00000E+00	 1.18575E+03	 6.73461E+01	 2.36383E+00
     0.128	 4.92183E+00	-4.49751E+00	-9.58783E-01	 1.89775E+01	 4.42165E+01	 1.04275E+00	 1.69209E-01	 1.04110E+00	 1.79088E-01	 4.80000E+00	-0.00000E+00	 0.00000E+00	 4.88275E+01	 1.26826E+01	 4.98564E-01	 1.07632E+01	 1.42727E+02	 1.43311E+00	 6.35862E-03	 1.40908E+00	 2.61387E-01	 4.20002E+00	-0.00000E+00	 0.00000E+00	 2.59939E+02	 6.82375E+01	 1.08969E+00	 8.29217E+00	 3.00673E+02	 1.30058E+00	 1.12576E-02	 1.28861E+00	 1.76432E-01	 3.66005E+00	-0.00000E+00	 0.00000E+00	 5.51763E+02	 1.11819E+02	 1.73296E+00	 7.06344E+00	 5.19917E+02	 1.15406E+00	 3.11779E-03	 1.14568E+00	 1.38818E-01	 2.73011E+00	-0.00000E+00	 0.00000E+00	 8.35975E+02	 1.41976E+02	 2.23702E+00	 6.68330E+00	 8.03089E+02	 1.05876E+00	-2.44341E-03	 1.05128E+00	 1.25646E-01	 1.64020E+00	-0.00000E+00	 0.00000E+00	 1.11454E+03	 1.65688E+02	 2.60710E+00	 6.40508E+00	 1.12960E+03	 9.64427E-01	-2.36318E-03	 9.58144E-01	 1.09937E-01	 5.90310E-01	-0.00000E+00	 0.00000E+00	 1.32650E+03	 1.66066E+02	 2.86318E+00	 5.97706E+00	 1.51691E+03	 8.52223E-01	 5.35750E-04	 8.47646E-01	 8.82093E-02	-2.69571E-01	-0.00000E+00	 0.00000E+00	 1.43141E+03	 1.42154E+02	 3.00856E+00	 5.57414E+00	 1.96371E+03	 7.59742E-01	 3.55928E-03	 7.56495E-01	 7.02540E-02	-7.69452E-01	-0.00000E+00	 0.00000E+00	 1.44919E+03	 1.14977E+02	 2.99761E+00	 4.96785E+00	 2.46759E+03	 6.77769E-01	 3.28174E-03	 6.75508E-01	 5.54233E-02	-9.19347E-01	-0.00000E+00	 0.00000E+00	 1.36596E+03	 9.00346E+01	 2.82262E+00	 4.46605E+00	 3.01968E+03	 6.26434E-01	 3.72411E-03	 6.24822E-01	 4.50666E-02	-9.69278E-01	-0.00000E+00	 0.00000E+00	 1.17077E+03	 6.45574E+01	 2.36463E+00
     0.132	 4.80100E+00	-4.40694E+00	-9.70807E-01	 1.88223E+01	 4.42171E+01	 1.04128E+00	 1.66518E-01	 1.03932E+00	 1.78341E-01	 4.80000E+00	-0.00000E+00	 0.00000E+00	 4.87466E+01	 1.26401E+01	 4.98567E-01	 1.06713E+01	 1.42877E+02	 1.42769E+00	 4.79447E-03	 1.40389E+00	 2.59661E-01	 4.20002E+00	-0.00000E+00	 0.00000E+00	 2.59264E+02	 6.79146E+01	 1.09027E+00	 8.25085E+00	 3.00921E+02	 1.29760E+00	 1.04733E-02	 1.28567E+00	 1.75850E-01	 3.66005E+00	-0.00000E+00	 0.00000E+00	 5.50964E+02	 1.11579E+02	 1.73367E+00	 6.93125E+00	 5.20332E+02	 1.14845E+00	 1.24331E-03	 1.14020E+00	 1.37358E-01	 2.73012E+00	-0.00000E+00	 0.00000E+00	 8.32669E+02	 1.40826E+02	 2.23791E+00	 6.53936E+00	 8.03906E+02	 1.05184E+00	-3.50715E-03	 1.04460E+00	 1.23274E-01	 1.64021E+00	-0.00000E+00	 0.00000E+00	 1.10863E+03	 1.63127E+02	 2.60843E+00	 6.27397E+00	 1.13092E+03	 9.56207E-01	-2.77577E-03	 9.50176E-01	 1.07256E-01	 5.90320E-01	-0.00000E+00	 0.00000E+00	 1.31703E+03	 1.62426E+02	 2.86485E+00	 5.85721E+00	 1.51892E+03	 8.42482E-01	 2.06070E-04	 8.38105E-01	 8.57699E-02	-2.69555E-01	-0.00000E+00	 0.00000E+00	 1.41717E+03	 1.38296E+02	 3.01056E+00	 5.47495E+00	 1.96544E+03	 7.52011E-01	 3.32702E-03	 7.48897E-01	 6.84379E-02	-7.69430E-01	-0.00000E+00	 0.00000E+00	 1.43588E+03	 1.11796E+02	 2.99894E+00	 4.86511E+00	 2.46950E+03	 6.70123E-01	 2.98915E-03	 6.67962E-01	 5.38549E-02	-9.19318E-01	-0.00000E+00	 0.00000E+00	 1.35172E+03	 8.71802E+01	 2.82372E+00	 4.38281E+00	 3.02432E+03	 6.18164E-01	 3.78683E-03	 6.16646E-01	 4.34643E-02	-9.69243E-01	-0.00000E+00	 0.00000E+00	 1.15719E+03	 6.19133E+01	 2.36644E+00
     0.136	 4.68217E+00	-4.31723E+00	-9.80449E-01	 1.86613E+01	 4.42327E+01	 1.03913E+00	 1.63586E-01	 1.03685E+00	 1.77509E-01	 4.80000E+00	-0.00000E+00	 0.00000E+00	 4.86492E+01	 1.25951E+01	 4.98656E-01	 1.05751E+01	 1.43043E+02	 1.42416E+00	 3.23092E-03	 1.40057E+00	 2.58193E-01	 4.20002E+00	-0.00000E+00	 0.00000E+00	 2.58963E+02	 6.76729E+01	 1.09090E+00	 8.20629E+00	 3.01198E+02	 1.29585E+00	 9.66738E-03	 1.28396E+00	 1.75398E-01	 3.66005E+00	-0.00000E+00	 0.00000E+00	 5.50743E+02	 1.11439E+02	 1.73447E+00	 6.80266E+00	 5.20806E+02	 1.14495E+00	-4.26217E-04	 1.13683E+00	 1.36042E-01	 2.73012E+00	-0.00000E+00	 0.00000E+00	 8.30998E+02	 1.39868E+02	 2.23893E+00	 6.40131E+00	 8.04793E+02	 1.04455E+00	-4.37499E-03	 1.03755E+00	 1.20806E-01	 1.64021E+00	-0.00000E+00	 0.00000E+00	 1.10241E+03	 1.60461E+02	 2.60987E+00	 6.15207E+00	 1.13237E+03	 9.48010E-01	-3.02449E-03	 9.42226E-01	 1.04603E-01	 5.90329E-01	-0.00000E+00	 0.00000E+00	 1.30771E+03	 1.58834E+02	 2.86668E+00	 5.74269E+00	 1.52116E+03	 8.32538E-01	-1.19121E-05	 8.28358E-01	 8.33164E-02	-2.69542E-01	-0.00000E+00	 0.00000E+00	 1.40274E+03	 1.34425E+02	 3.01277E+00	 5.37570E+00	 1.96725E+03	 7.44232E-01	 3.11077E-03	 7.41251E-01	 6.66272E-02	-7.69411E-01	-0.00000E+00	 0.00000E+00	 1.42249E+03	 1.08626E+02	 3.00031E+00	 4.76212E+00	 2.47157E+03	 6.62362E-01	 2.72513E-03	 6.60302E-01	 5.22729E-02	-9.19293E-01	-0.00000E+00	 0.00000E+00	 1.33731E+03	 8.43025E+01	 2.82490E+00	 4.30585E+00	 3.02919E+03	 6.10309E-01	 3.88565E-03	 6.08878E-01	 4.19477E-02	-9.69214E-01	-0.00000E+00	 0.00000E+00	 1.14442E+03	 5.94131E+01	 2.36835E+00
     0.140	 4.56540E+00	-4.22873E+00	-9.88072E-01	 1.84937E+01	 4.42511E+01	 1.03696E+00	 1.60573E-01	 1.03434E+00	 1.76643E-01	 4.80000E+00	-0.00000E+00	 0.00000E+00	 4.85536E+01	 1.25490E+01	 4.98759E-01	 1.04756E+01	 1.43230E+02	 1.41699E+00	 1.60670E-03	 1.39366E+00	 2.56052E-01	 4.20002E+00	-0.00000E+00	 0.00000E+00	 2.58035E+02	 6.72642E+01	 1.09161E+00	 8.15974E+00	 3.01496E+02	 1.29212E+00	 8.85975E-03	 1.28030E+00	 1.74626E-01	 3.66005E+00	-0.00000E+00	 0.00000E+00	 5.49725E+02	 1.11113E+02	 1.73533E+00	 6.68111E+00	 5.21409E+02	 1.13987E+00	-1.82341E-03	 1.13192E+00	 1.34427E-01	 2.73012E+00	-0.00000E+00	 0.00000E+00	 8.28395E+02	 1.38669E+02	 2.24022E+00	 6.26963E+00	 8.05741E+02	 1.03689E+00	-5.05932E-03	 1.03014E+00	 1.18266E-01	 1.64022E+00	-0.00000E+00	 0.00000E+00	 1.09588E+03	 1.57712E+02	 2.61140E+00	 6.03965E+00	 1.13394E+03	 9.39964E-01	-3.12676E-03	 9.34418E-01	 1.02009E-01	 5.90336E-01	-0.00000E+00	 0.00000E+00	 1.29870E+03	 1.55334E+02	 2.86867E+00	 5.63898E+00	 1.52345E+03	 8.23478E-01	-6.55116E-05	 8.19486E-01	 8.09801E-02	-2.69531E-01	-0.00000E+00	 0.00000E+00	 1.38979E+03	 1.30738E+02	 3.01504E+00	 5.27603E+00	 1.96914E+03	 7.36373E-01	 2.88884E-03	 7.33518E-01	 6.48359E-02	-7.69395E-01	-0.00000E+00	 0.00000E+00	 1.40897E+03	 1.05493E+02	 3.00175E+00	 4.65859E+00	 2.47377E+03	 6.54502E-01	 2.49133E-03	 6.52542E-01	 5.06743E-02	-9.19273E-01	-0.00000E+00	 0.00000E+00	 1.32273E+03	 8.13936E+01	 2.82616E+00	 4.23487E+00	 3.03426E+03	 6.02757E-01	 4.00648E-03	 6.01407E-01	 4.05151E-02	-9.69190E-01	-0.00000E+00	 0.00000E+00	 1.13224E+03	 5.70567E+01	 2.37033E+00
     0.144	 4.45089E+00	-4.14162E+00	-9.93891E-01	 1.83220E+01	 4.42861E+01	 1.03338E+00	 1.57181E-01	 1.03040E+00	 1.75637E-01	 4.80000E+00	-0.00000E+00	 0.00000E+00	 4.84083E+01	 1.24952E+01	 4.98956E-01	 1.03761E+01	 1.43457E+02	 1.40315E+00	-2.07173E-05	 1.38020E+00	 2.52741E-01	 4.20002E+00	-0.00000E+00	 0.00000E+00	 2.55960E+02	 6.65629E+01	 1.09248E+00	 8.10309E+00	 3.01829E+02	 1.29495E+00	 7.88730E-03	 1.28313E+00	 1.74721E-01	 3.66006E+00	-0.00000E+00	 0.00000E+00	 5.51558E+02	 1.11356E+02	 1.73629E+00	 6.56518E+00	 5.22094E+02	 1.13642E+00	-3.02152E-03	 1.12862E+00	 1.32932E-01	 2.73012E+00	-0.00000E+00	 0.00000E+00	 8.27109E+02	 1.37634E+02	 2.24169E+00	 6.14472E+00	 8.06754E+02	 1.02920E+00	-5.57496E-03	 1.02269E+00	 1.15708E-01	 1.64022E+00	-0.00000E+00	 0.00000E+00	 1.08937E+03	 1.54949E+02	 2.61304E+00	 5.93683E+00	 1.13563E+03	 9.32270E-01	-3.10008E-03	 9.26949E-01	 9.95100E-02	 5.90343E-01	-0.00000E+00	 0.00000E+00	 1.29027E+03	 1.51976E+02	 2.87081E+00	 5.54601E+00	 1.52579E+03	 8.16123E-01	 1.39787E-05	 8.12304E-01	 7.88603E-02	-2.69521E-01	-0.00000E+00	 0.00000E+00	 1.37972E+03	 1.27397E+02	 3.01735E+00	 5.17624E+00	 1.97106E+03	 7.28362E-01	 2.65982E-03	 7.25632E-01	 6.30635E-02	-7.69382E-01	-0.00000E+00	 0.00000E+00	 1.39516E+03	 1.02396E+02	 3.00322E+00	 4.56601E+00	 2.47675E+03	 6.47011E-01	 2.41890E-03	 6.45151E-01	 4.90958E-02	-9.19257E-01	-0.00000E+00	 0.00000E+00	 1.30929E+03	 7.85328E+01	 2.82786E+00	 4.16962E+00	 3.03950E+03	 5.95537E-01	 4.14057E-03	 5.94262E-01	 3.91715E-02	-9.69171E-01	-0.00000E+00	 0.00000E+00	 1.12070E+03	 5.48523E+01	 2.37238E+00
     0.148	 4.33868E+00	-4.05624E+00	-9.98245E-01	 1.81594E+01	 4.43416E+01	 1.02437E+00	 1.52671E-01	 1.02093E+00	 1.74191E-01	 4.80000E+00	-0.00000E+00	 0.00000E+00	 4.80228E+01	 1.24039E+01	 4.99269E-01	 1.02805E+01	 1.43692E+02	 1.38759E+00	-1.48677E-03	 1.36505E+00	 2.49102E-01	 4.20002E+00	-0.00000E+00	 0.00000E+00	 2.53576E+02	 6.57769E+01	 1.09337E+00	 8.02037E+00	 3.02217E+02	 1.30649E+00	 6.39265E-03	 1.29460E+00	 1.75958E-01	 3.66006E+00	-0.00000E+00	 0.00000E+00	 5.57212E+02	 1.12355E+02	 1.73740E+00	 6.45378E+00	 5.22857E+02	 1.13394E+00	-4.05808E-03	 1.12630E+00	 1.31490E-01	 2.73013E+00	-0.00000E+00	 0.00000E+00	 8.26656E+02	 1.36688E+02	 2.24333E+00	 6.02678E+00	 8.07834E+02	 1.02164E+00	-5.93828E-03	 1.01537E+00	 1.13171E-01	 1.64022E+00	-0.00000E+00	 0.00000E+00	 1.08308E+03	 1.52218E+02	 2.61479E+00	 5.84350E+00	 1.13745E+03	 9.25018E-01	-2.96303E-03	 9.19910E-01	 9.71252E-02	 5.90348E-01	-0.00000E+00	 0.00000E+00	 1.28254E+03	 1.48790E+02	 2.87311E+00	 5.46353E+00	 1.52817E+03	 8.09776E-01	 2.04050E-04	 8.06116E-01	 7.68973E-02	-2.69514E-01	-0.00000E+00	 0.00000E+00	 1.37132E+03	 1.24307E+02	 3.01970E+00	 5.07607E+00	 1.97301E+03	 7.20253E-01	 2.42507E-03	 7.17642E-01	 6.13111E-02	-7.69373E-01	-0.00000E+00	 0.00000E+00	 1.38114E+03	 9.93352E+01	 3.00471E+00	 4.49100E+00	 2.48061E+03	 6.40847E-01	 2.53225E-03	 6.39077E-01	 4.76554E-02	-9.19246E-01	-0.00000E+00	 0.00000E+00	 1.29896E+03	 7.59291E+01	 2.83006E+00	 4.10971E+00	 3.04487E+03	 5.88690E-01	 4.28071E-03	 5.87483E-01	 3.79197E-02	-9.69158E-01	-0.00000E+00	 0.00000E+00	 1.10985E+03	 5.28036E+01	 2.37447E+00
     0.152	 4.23277E+00	-3.96370E+00	-9.96880E-01	 1.80545E+01	 4.44531E+01	 9.98391E-01	 1.45110E-01	 9.94205E-01	 1.71459E-01	 4.80000E+00	-0.00000E+00	 0.00000E+00	 4.68759E+01	 1.21970E+01	 4.99896E-01	 1.01827E+01	 1.43914E+02	 1.39061E+00	-2.71471E-03	 1.36822E+00	 2.48514E-01	 4.20002E+00	-0.00000E+00	 0.00000E+00	 2.54576E+02	 6.58121E+01	 1.09422E+00	 7.93288E+00	 3.02644E+02	 1.28420E+00	 4.88898E-03	 1.27258E+00	 1.72394E-01	 3.66006E+00	-0.00000E+00	 0.00000E+00	 5.48525E+02	 1.10351E+02	 1.73863E+00	 6.34795E+00	 5.23678E+02	 1.13005E+00	-4.90425E-03	 1.12258E+00	 1.29819E-01	 2.73013E+00	-0.00000E+00	 0.00000E+00	 8.25262E+02	 1.35537E+02	 2.24509E+00	 5.91593E+00	 8.08992E+02	 1.01428E+00	-6.16461E-03	 1.00824E+00	 1.10673E-01	 1.64023E+00	-0.00000E+00	 0.00000E+00	 1.07707E+03	 1.49540E+02	 2.61667E+00	 5.75956E+00	 1.13940E+03	 9.18196E-01	-2.72976E-03	 9.13287E-01	 9.48607E-02	 5.90352E-01	-0.00000E+00	 0.00000E+00	 1.27551E+03	 1.45782E+02	 2.87556E+00	 5.39139E+00	 1.53057E+03	 8.03966E-01	 4.87992E-04	 8.00455E-01	 7.50537E-02	-2.69508E-01	-0.00000E+00	 0.00000E+00	 1.36382E+03	 1.21409E+02	 3.02207E+00	 4.97515E+00	 1.97499E+03	 7.12013E-01	 2.18490E-03	 7.09520E-01	 5.95717E-02	-7.69366E-01	-0.00000E+00	 0.00000E+00	 1.36685E+03	 9.62977E+01	 3.00621E+00	 4.42113E+00	 2.48443E+03	 6.35305E-01	 2.65803E-03	 6.33619E-01	 4.63234E-02	-9.19238E-01	-0.00000E+00	 0.00000E+00	 1.28982E+03	 7.35160E+01	 2.83224E+00	 4.05579E+00	 3.05120E+03	 5.82302E-01	 4.43043E-03	 5.81157E-01	 3.67657E-02	-9.69150E-01	-0.00000E+00	 0.00000E+00	 1.10015E+03	 5.09335E+01	 2.37694E+00
     0.156	 4.13059E+00	-3.87117E+00	-9.93341E-01	 1.79517E+01	 4.45762E+01	 1.01527E+00	 1.48145E-01	 1.01151E+00	 1.71989E-01	 4.80000E+00	-0.00000E+00	 0.00000E+00	 4.78336E+01	 1.23260E+01	 5.00588E-01	 1.00837E+01	 1.44170E+02	 1.39049E+00	-3.95640E-03	 1.36832E+00	 2.47353E-01	 4.20002E+00	-0.00000E+00	 0.00000E+00	 2.55063E+02	 6.57111E+01	 1.09519E+00	 7.80124E+00	 3.03206E+02	 1.29448E+00	 2.48028E-03	 1.28284E+00	 1.73251E-01	 3.66006E+00	-0.00000E+00	 0.00000E+00	 5.53985E+02	 1.11215E+02	 1.74024E+00	 6.24755E+00	 5.24578E+02	 1.12586E+00	-5.58679E-03	 1.11856E+00	 1.28074E-01	 2.73013E+00	-0.00000E+00	 0.00000E+00	 8.23768E+02	 1.34336E+02	 2.24702E+00	 5.81276E+00	 8.10220E+02	 1.00702E+00	-6.25743E-03	 1.00120E+00	 1.08214E-01	 1.64023E+00	-0.00000E+00	 0.00000E+00	 1.07122E+03	 1.46911E+02	 2.61865E+00	 5.68521E+00	 1.14146E+03	 9.11808E-01	-2.40845E-03	 9.07085E-01	 9.27229E-02	 5.90355E-01	-0.00000E+00	 0.00000E+00	 1.26916E+03	 1.42963E+02	 2.87817E+00	 5.32964E+00	 1.53300E+03	 7.98674E-01	 8.53637E-04	 7.95301E-01	 7.33355E-02	-2.69505E-01	-0.00000E+00	 0.00000E+00	 1.35719E+03	 1.18712E+02	 3.02447E+00	 4.91774E+00	 1.97666E+03	 7.04982E-01	 2.42616E-03	 7.02595E-01	 5.80177E-02	-7.69362E-01	-0.00000E+00	 0.00000E+00	 1.35463E+03	 9.35656E+01	 3.00749E+00	 4.35589E+00	 2.48804E+03	 6.29139E-01	 2.79707E-03	 6.27534E-01	 4.49950E-02	-9.19234E-01	-0.00000E+00	 0.00000E+00	 1.27926E+03	 7.11169E+01	 2.83429E+00	 4.00683E+00	 3.05779E+03	 5.76365E-01	 4.57830E-03	 5.75276E-01	 3.57065E-02	-9.69147E-01	-0.00000E+00	 0.00000E+00	 1.09135E+03	 4.92250E+01	 2.37950E+00
     0.160	 4.03086E+00	-3.78293E+00	-9.89597E-01	 1.78449E+01	 4.47144E+01	 1.02918E+00	 1.50330E-01	 1.02573E+00	 1.72287E-01	 4.80000E+00	-0.00000E+00	 0.00000E+00	 4.86653E+01	 1.24360E+01	 5.01363E-01	 9.98077E+00	 1.44444E+02	 1.38691E+00	-5.27141E-03	 1.36501E+00	 2.45568E-01	 4.20002E+00	-0.00000E+00	 0.00000E+00	 2.54944E+02	 6.54517E+01	 1.09623E+00	 7.67218E+00	 3.03817E+02	 1.25338E+00	 4.70080E-04	 1.24222E+00	 1.66866E-01	 3.66006E+00	-0.00000E+00	 0.00000E+00	 5.37553E+02	 1.07519E+02	 1.74200E+00	 6.15244E+00	 5.25535E+02	 1.12181E+00	-6.12660E-03	 1.11470E+00	 1.26321E-01	 2.73013E+00	-0.00000E+00	 0.00000E+00	 8.22465E+02	 1.33144E+02	 2.24907E+00	 5.71669E+00	 8.11524E+02	 1.00023E+00	-6.24479E-03	 9.94634E-01	 1.05846E-01	 1.64023E+00	-0.00000E+00	 0.00000E+00	 1.06596E+03	 1.44401E+02	 2.62076E+00	 5.62026E+00	 1.14363E+03	 9.05988E-01	-2.01217E-03	 9.01436E-01	 9.07302E-02	 5.90357E-01	-0.00000E+00	 0.00000E+00	 1.26368E+03	 1.40357E+02	 2.88090E+00	 5.27834E+00	 1.53545E+03	 7.93985E-01	 1.28417E-03	 7.90736E-01	 7.17633E-02	-2.69503E-01	-0.00000E+00	 0.00000E+00	 1.35154E+03	 1.16252E+02	 3.02689E+00	 4.88395E+00	 1.97840E+03	 7.03919E-01	 2.81847E-03	 7.01603E-01	 5.71219E-02	-7.69361E-01	-0.00000E+00	 0.00000E+00	 1.35389E+03	 9.19469E+01	 3.00881E+00	 4.29465E+00	 2.49180E+03	 6.22798E-01	 2.94142E-03	 6.21269E-01	 4.37055E-02	-9.19235E-01	-0.00000E+00	 0.00000E+00	 1.26837E+03	 6.87996E+01	 2.83644E+00	 3.96215E+00	 3.06425E+03	 5.70809E-01	 4.72013E-03	 5.69771E-01	 3.47326E-02	-9.69149E-01	-0.00000E+00	 0.00000E+00	 1.08317E+03	 4.76562E+01	 2.38202E+00
     0.164	 3.93368E+00	-3.69931E+00	-9.85821E-01	 1.77411E+01	 4.48626E+01	 1.02683E+00	 1.48609E-01	 1.02328E+00	 1.71352E-01	 4.80000E+00	-0.00000E+00	 0.00000E+00	 4.87121E+01	 1.24221E+01	 5.02193E-01	 9.87597E+00	 1.44738E+02	 1.37843E+00	-6.60554E-03	 1.35687E+00	 2.42931E-01	 4.20002E+00	-0.00000E+00	 0.00000E+00	 2.53957E+02	 6.49715E+01	 1.09734E+00	 7.54753E+00	 3.04485E+02	 1.21349E+00	-1.20055E-03	 1.20281E+00	 1.60580E-01	 3.66006E+00	-0.00000E+00	 0.00000E+00	 5.21671E+02	 1.03902E+02	 1.74391E+00	 6.06261E+00	 5.26570E+02	 1.11763E+00	-6.53282E-03	 1.11069E+00	 1.24535E-01	 2.73013E+00	-0.00000E+00	 0.00000E+00	 8.21171E+02	 1.31937E+02	 2.25128E+00	 5.62807E+00	 8.12889E+02	 9.93590E-01	-6.12810E-03	 9.88199E-01	 1.03540E-01	 1.64023E+00	-0.00000E+00	 0.00000E+00	 1.06089E+03	 1.41962E+02	 2.62296E+00	 5.56422E+00	 1.14591E+03	 9.00761E-01	-1.55594E-03	 8.96366E-01	 8.88877E-02	 5.90358E-01	-0.00000E+00	 0.00000E+00	 1.25910E+03	 1.37973E+02	 2.88378E+00	 5.23675E+00	 1.53793E+03	 7.89961E-01	 1.74362E-03	 7.86822E-01	 7.03645E-02	-2.69502E-01	-0.00000E+00	 0.00000E+00	 1.34701E+03	 1.14078E+02	 3.02933E+00	 4.86342E+00	 1.98021E+03	 7.03909E-01	 3.23739E-03	 7.01649E-01	 5.64523E-02	-7.69362E-01	-0.00000E+00	 0.00000E+00	 1.35519E+03	 9.07377E+01	 3.01018E+00	 4.23621E+00	 2.49565E+03	 6.16536E-01	 3.07999E-03	 6.15080E-01	 4.24711E-02	-9.19238E-01	-0.00000E+00	 0.00000E+00	 1.25765E+03	 6.65876E+01	 2.83863E+00	 3.92118E+00	 3.07055E+03	 5.65616E-01	 4.85357E-03	 5.64624E-01	 3.38369E-02	-9.69155E-01	-0.00000E+00	 0.00000E+00	 1.07557E+03	 4.62153E+01	 2.38446E+00
     0.168	 3.83907E+00	-3.62026E+00	-9.82181E-01	 1.76120E+01	 4.50255E+01	 1.03615E+00	 1.49219E-01	 1.03273E+00	 1.71283E-01	 4.80000E+00	-0.00000E+00	 0.00000E+00	 4.93472E+01	 1.25024E+01	 5.03104E-01	 9.76948E+00	 1.45065E+02	 1.37077E+00	-7.90303E-03	 1.34955E+00	 2.40387E-01	 4.20002E+00	-0.00000E+00	 0.00000E+00	 2.53175E+02	 6.45328E+01	 1.09858E+00	 7.42671E+00	 3.05206E+02	 1.20269E+00	-2.79745E-03	 1.19223E+00	 1.58231E-01	 3.66006E+00	-0.00000E+00	 0.00000E+00	 5.18334E+02	 1.02821E+02	 1.74597E+00	 5.97833E+00	 5.27668E+02	 1.11321E+00	-6.80958E-03	 1.10645E+00	 1.22716E-01	 2.73013E+00	-0.00000E+00	 0.00000E+00	 8.19788E+02	 1.30706E+02	 2.25363E+00	 5.54667E+00	 8.14332E+02	 9.87245E-01	-5.92323E-03	 9.82050E-01	 1.01319E-01	 1.64023E+00	-0.00000E+00	 0.00000E+00	 1.05621E+03	 1.39628E+02	 2.62529E+00	 5.51679E+00	 1.14831E+03	 8.96024E-01	-1.04904E-03	 8.91773E-01	 8.71856E-02	 5.90359E-01	-0.00000E+00	 0.00000E+00	 1.25528E+03	 1.35795E+02	 2.88678E+00	 5.20542E+00	 1.54039E+03	 7.86485E-01	 2.22600E-03	 7.83444E-01	 6.91385E-02	-2.69503E-01	-0.00000E+00	 0.00000E+00	 1.34337E+03	 1.12186E+02	 3.03175E+00	 4.87057E+00	 1.98275E+03	 7.03404E-01	 3.84872E-03	 7.01191E-01	 5.58878E-02	-7.69366E-01	-0.00000E+00	 0.00000E+00	 1.35603E+03	 8.97754E+01	 3.01211E+00	 4.18080E+00	 2.49960E+03	 6.10379E-01	 3.21786E-03	 6.08989E-01	 4.12898E-02	-9.19245E-01	-0.00000E+00	 0.00000E+00	 1.24714E+03	 6.44761E+01	 2.84087E+00	 3.88350E+00	 3.07667E+03	 5.60768E-01	 4.97808E-03	 5.59818E-01	 3.30130E-02	-9.69165E-01	-0.00000E+00	 0.00000E+00	 1.06852E+03	 4.48912E+01	 2.38684E+00
     0.172	 3.74704E+00	-3.54571E+00	-9.78823E-01	 1.74493E+01	 4.51965E+01	 1.04162E+00	 1.48271E-01	 1.03815E+00	 1.70894E-01	 4.80000E+00	-0.00000E+00	 0.00000E+00	 4.97996E+01	 1.25530E+01	 5.04059E-01	 9.66052E+00	 1.45417E+02	 1.36525E+00	-9.17857E-03	 1.34435E+00	 2.38151E-01	 4.20002E+00	-0.00000E+00	 0.00000E+00	 2.52829E+02	 6.41905E+01	 1.09992E+00	 7.30945E+00	 3.05981E+02	 1.19911E+00	-4.27038E-03	 1.18882E+00	 1.56796E-01	 3.66006E+00	-0.00000E+00	 0.00000E+00	 5.18189E+02	 1.02356E+02	 1.74819E+00	 5.89938E+00	 5.28832E+02	 1.10896E+00	-6.97646E-03	 1.10237E+00	 1.20920E-01	 2.73013E+00	-0.00000E+00	 0.00000E+00	 8.18614E+02	 1.29508E+02	 2.25611E+00	 5.47232E+00	 8.15846E+02	 9.81240E-01	-5.64211E-03	 9.76230E-01	 9.91923E-02	 1.64023E+00	-0.00000E+00	 0.00000E+00	 1.05195E+03	 1.37409E+02	 2.62773E+00	 5.47797E+00	 1.15079E+03	 8.91754E-01	-4.95153E-04	 8.87634E-01	 8.56224E-02	 5.90358E-01	-0.00000E+00	 0.00000E+00	 1.25218E+03	 1.33822E+02	 2.88991E+00	 5.18376E+00	 1.54287E+03	 7.83744E-01	 2.72373E-03	 7.80784E-01	 6.80989E-02	-2.69506E-01	-0.00000E+00	 0.00000E+00	 1.34096E+03	 1.10604E+02	 3.03420E+00	 4.88514E+00	 1.98552E+03	 7.04852E-01	 4.39944E-03	 7.02666E-01	 5.56407E-02	-7.69371E-01	-0.00000E+00	 0.00000E+00	 1.36077E+03	 8.93842E+01	 3.01421E+00	 4.20469E+00	 2.50345E+03	 6.08598E-01	 4.03159E-03	 6.07255E-01	 4.06016E-02	-9.19254E-01	-0.00000E+00	 0.00000E+00	 1.24549E+03	 6.32222E+01	 2.84306E+00	 3.84876E+00	 3.08259E+03	 5.56249E-01	 5.09394E-03	 5.55337E-01	 3.22547E-02	-9.69178E-01	-0.00000E+00	 0.00000E+00	 1.06199E+03	 4.36735E+01	 2.38913E+00
     0.176	 3.65758E+00	-3.47622E+00	-9.75795E-01	 1.72538E+01	 4.53774E+01	 1.03779E+00	 1.44551E-01	 1.03396E+00	 1.69765E-01	 4.80000E+00	-0.00000E+00	 0.00000E+00	 4.97991E+01	 1.25310E+01	 5.05067E-01	 9.55010E+00	 1.45796E+02	 1.35972E+00	-1.04244E-02	 1.33915E+00	 2.35871E-01	 4.20002E+00	-0.00000E+00	 0.00000E+00	 2.52527E+02	 6.38493E+01	 1.10135E+00	 7.19627E+00	 3.06810E+02	 1.19592E+00	-5.58098E-03	 1.18580E+00	 1.55349E-01	 3.66006E+00	-0.00000E+00	 0.00000E+00	 5.18306E+02	 1.01910E+02	 1.75056E+00	 5.82592E+00	 5.30063E+02	 1.10470E+00	-7.03735E-03	 1.09828E+00	 1.19135E-01	 2.73013E+00	-0.00000E+00	 0.00000E+00	 8.17521E+02	 1.28328E+02	 2.25874E+00	 5.40486E+00	 8.17423E+02	 9.75512E-01	-5.29389E-03	 9.70676E-01	 9.71565E-02	 1.64023E+00	-0.00000E+00	 0.00000E+00	 1.04804E+03	 1.35298E+02	 2.63027E+00	 5.44653E+00	 1.15338E+03	 8.88142E-01	 8.33403E-05	 8.84141E-01	 8.42166E-02	 5.90357E-01	-0.00000E+00	 0.00000E+00	 1.25007E+03	 1.32083E+02	 2.89316E+00	 5.17040E+00	 1.54540E+03	 7.81689E-01	 3.22200E-03	 7.78798E-01	 6.72354E-02	-2.69509E-01	-0.00000E+00	 0.00000E+00	 1.33974E+03	 1.09316E+02	 3.03668E+00	 4.90410E+00	 1.98843E+03	 7.05620E-01	 4.88030E-03	 7.03454E-01	 5.54598E-02	-7.69378E-01	-0.00000E+00	 0.00000E+00	 1.36429E+03	 8.91443E+01	 3.01642E+00	 4.24651E+00	 2.50738E+03	 6.13116E-01	 4.78906E-03	 6.11788E-01	 4.06239E-02	-9.19265E-01	-0.00000E+00	 0.00000E+00	 1.25675E+03	 6.32179E+01	 2.84529E+00	 3.81604E+00	 3.08827E+03	 5.51994E-01	 5.19652E-03	 5.51116E-01	 3.15520E-02	-9.69193E-01	-0.00000E+00	 0.00000E+00	 1.05585E+03	 4.25454E+01	 2.39133E+00
     0.180	 3.57063E+00	-3.41129E+00	-9.73226E-01	 1.70278E+01	 4.55650E+01	 1.03032E+00	 1.39513E-01	 1.02600E+00	 1.68316E-01	 4.80000E+00	-0.00000E+00	 0.00000E+00	 4.96207E+01	 1.24789E+01	 5.06109E-01	 9.43747E+00	 1.46197E+02	 1.35425E+00	-1.16585E-02	 1.33401E+00	 2.33558E-01	 4.20002E+00	-0.00000E+00	 0.00000E+00	 2.52269E+02	 6.35094E+01	 1.10286E+00	 7.08648E+00	 3.07689E+02	 1.19343E+00	-6.76047E-03	 1.18348E+00	 1.53939E-01	 3.66006E+00	-0.00000E+00	 0.00000E+00	 5.18800E+02	 1.01513E+02	 1.75306E+00	 5.75691E+00	 5.31368E+02	 1.10091E+00	-7.02630E-03	 1.09465E+00	 1.17421E-01	 2.73013E+00	-0.00000E+00	 0.00000E+00	 8.16876E+02	 1.27229E+02	 2.26151E+00	 5.34385E+00	 8.19071E+02	 9.70130E-01	-4.89214E-03	 9.65458E-01	 9.52216E-02	 1.64023E+00	-0.00000E+00	 0.00000E+00	 1.04455E+03	 1.33310E+02	 2.63292E+00	 5.42235E+00	 1.15606E+03	 8.84890E-01	 6.85817E-04	 8.80995E-01	 8.29363E-02	 5.90355E-01	-0.00000E+00	 0.00000E+00	 1.24853E+03	 1.30527E+02	 2.89652E+00	 5.16503E+00	 1.54797E+03	 7.80083E-01	 3.72154E-03	 7.77251E-01	 6.65203E-02	-2.69514E-01	-0.00000E+00	 0.00000E+00	 1.33930E+03	 1.08279E+02	 3.03921E+00	 4.92682E+00	 1.99148E+03	 7.05854E-01	 5.30454E-03	 7.03702E-01	 5.53361E-02	-7.69387E-01	-0.00000E+00	 0.00000E+00	 1.36686E+03	 8.90343E+01	 3.01874E+00	 4.28820E+00	 2.51145E+03	 6.15770E-01	 5.37416E-03	 6.14448E-01	 4.06841E-02	-9.19279E-01	-0.00000E+00	 0.00000E+00	 1.26426E+03	 6.33563E+01	 2.84760E+00	 3.78428E+00	 3.09374E+03	 5.47908E-01	 5.28218E-03	 5.47062E-01	 3.08913E-02	-9.69212E-01	-0.00000E+00	 0.00000E+00	 1.04993E+03	 4.14850E+01	 2.39345E+00
     0.184	 3.55287E+00	-3.43527E+00	-9.48092E-01	 1.67717E+01	 4.57584E+01	 1.02305E+00	 1.34090E-01	 1.01823E+00	 1.66825E-01	 4.80000E+00	-0.00000E+00	 0.00000E+00	 4.94544E+01	 1.24263E+01	 5.07183E-01	 9.32253E+00	 1.46626E+02	 1.34865E+00	-1.28836E-02	 1.32875E+00	 2.31184E-01	 4.20002E+00	-0.00000E+00	 0.00000E+00	 2.52033E+02	 6.31655E+01	 1.10448E+00	 6.97984E+00	 3.08619E+02	 1.19077E+00	-7.81342E-03	 1.18100E+00	 1.52458E-01	 3.66006E+00	-0.00000E+00	 0.00000E+00	 5.19312E+02	 1.01093E+02	 1.75571E+00	 5.69295E+00	 5.32731E+02	 1.09663E+00	-6.92543E-03	 1.09053E+00	 1.15674E-01	 2.73013E+00	-0.00000E+00	 0.00000E+00	 8.15934E+02	 1.26093E+02	 2.26441E+00	 5.28898E+00	 8.20796E+02	 9.65022E-01	-4.44568E-03	 9.60504E-01	 9.33816E-02	 1.64023E+00	-0.00000E+00	 0.00000E+00	 1.04142E+03	 1.31435E+02	 2.63569E+00	 5.40478E+00	 1.15883E+03	 8.82085E-01	 1.30221E-03	 8.78286E-01	 8.17884E-02	 5.90353E-01	-0.00000E+00	 0.00000E+00	 1.24769E+03	 1.29168E+02	 2.89999E+00	 5.16736E+00	 1.55062E+03	 7.78997E-01	 4.22320E-03	 7.76211E-01	 6.59545E-02	-2.69520E-01	-0.00000E+00	 0.00000E+00	 1.33979E+03	 1.07496E+02	 3.04181E+00	 4.95353E+00	 1.99465E+03	 7.06465E-01	 5.69095E-03	 7.04318E-01	 5.53319E-02	-7.69397E-01	-0.00000E+00	 0.00000E+00	 1.37023E+03	 8.91516E+01	 3.02114E+00	 4.33007E+00	 2.51564E+03	 6.16595E-01	 5.83644E-03	 6.15276E-01	 4.07345E-02	-9.19294E-01	-0.00000E+00	 0.00000E+00	 1.26807E+03	 6.35378E+01	 2.84997E+00	 3.81544E+00	 3.09817E+03	 5.48271E-01	 5.82205E-03	 5.47443E-01	 3.06743E-02	-9.69232E-01	-0.00000E+00	 0.00000E+00	 1.05215E+03	 4.11151E+01	 2.39516E+00
     0.188	 3.54987E+00	-3.48019E+00	-9.19829E-01	 1.64893E+01	 4.59555E+01	 1.01465E+00	 1.28075E-01	 1.00927E+00	 1.65185E-01	 4.80000E+00	-0.00000E+00	 0.00000E+00	 4.92312E+01	 1.23615E+01	 5.08273E-01	 9.20554E+00	 1.47083E+02	 1.34277E+00	-1.40930E-02	 1.32322E+00	 2.28723E-01	 4.20002E+00	-0.00000E+00	 0.00000E+00	 2.51787E+02	 6.28098E+01	 1.10620E+00	 6.87597E+00	 3.09596E+02	 1.18762E+00	-8.75048E-03	 1.17803E+00	 1.50870E-01	 3.66006E+00	-0.00000E+00	 0.00000E+00	 5.19680E+02	 1.00622E+02	 1.75848E+00	 5.63374E+00	 5.34156E+02	 1.09241E+00	-6.75436E-03	 1.08647E+00	 1.13962E-01	 2.73013E+00	-0.00000E+00	 0.00000E+00	 8.15118E+02	 1.24994E+02	 2.26744E+00	 5.24020E+00	 8.22591E+02	 9.60118E-01	-3.95777E-03	 9.55744E-01	 9.16300E-02	 1.64023E+00	-0.00000E+00	 0.00000E+00	 1.03856E+03	 1.29666E+02	 2.63857E+00	 5.39390E+00	 1.16169E+03	 8.79696E-01	 1.93441E-03	 8.75983E-01	 8.07677E-02	 5.90350E-01	-0.00000E+00	 0.00000E+00	 1.24749E+03	 1.27997E+02	 2.90355E+00	 5.17838E+00	 1.55329E+03	 7.78509E-01	 4.74315E-03	 7.75759E-01	 6.55419E-02	-2.69526E-01	-0.00000E+00	 0.00000E+00	 1.34131E+03	 1.06971E+02	 3.04442E+00	 4.98348E+00	 1.99793E+03	 7.07667E-01	 6.04340E-03	 7.05517E-01	 5.54535E-02	-7.69408E-01	-0.00000E+00	 0.00000E+00	 1.37482E+03	 8.95030E+01	 3.02362E+00	 4.37161E+00	 2.51994E+03	 6.17341E-01	 6.19578E-03	 6.16018E-01	 4.08791E-02	-9.19310E-01	-0.00000E+00	 0.00000E+00	 1.27177E+03	 6.39199E+01	 2.85241E+00	 3.85796E+00	 3.10242E+03	 5.51415E-01	 6.27367E-03	 5.50587E-01	 3.08416E-02	-9.69254E-01	-0.00000E+00	 0.00000E+00	 1.05965E+03	 4.13903E+01	 2.39681E+00
[...]
     4.832	 3.28231E+00	-3.09556E+00	-3.77126E-01	 4.12824E+00	 6.65241E+01	 9.61039E-01	-3.50272E-02	 9.56024E-01	 1.04121E-01	 4.80000E+00	 4.34612E-01	 1.86887E-02	 6.78209E+01	 1.32022E+01	 6.11530E-01	 2.14509E+00	 1.89376E+02	 7.12773E-01	-9.02140E-03	 7.11936E-01	 3.56943E-02	 4.19999E+00	 3.99546E-01	 8.07118E-03	 1.76016E+02	 2.18311E+01	 1.25521E+00	 6.79244E-01	 3.69423E+02	 5.97685E-01	 4.76130E-04	 5.97649E-01	 6.60932E-03	 3.65999E+00	 4.21998E-01	 4.11028E-03	 3.16972E+02	 2.37975E+01	 1.92089E+00	 3.84310E-01	 5.98591E+02	 5.39383E-01	 2.64701E-03	 5.39389E-01	 9.70920E-04	 2.72998E+00	 4.56349E-01	 2.42835E-03	 4.55729E+02	 2.25529E+01	 2.40031E+00	 9.54021E-01	 8.91930E+02	 4.81544E-01	 5.01474E-03	 4.81560E-01	 3.00368E-03	 1.63997E+00	 4.63747E-01	 1.74272E-03	 5.68861E+02	 1.98386E+01	 2.74752E+00	 1.50866E+00	 1.23663E+03	 4.48838E-01	 6.90185E-03	 4.48864E-01	 4.91761E-03	 5.89955E-01	 4.87581E-01	 1.26022E-03	 6.81038E+02	 1.44755E+01	 2.99575E+00	 2.01585E+00	 1.63987E+03	 4.33765E-01	 6.65297E-03	 4.33730E-01	 8.60923E-03	-2.70068E-01	 5.09802E-01	 9.58383E-04	 7.91494E+02	 1.19787E+01	 3.12812E+00	 2.30397E+00	 2.11889E+03	 4.16639E-01	 5.58207E-03	 4.16526E-01	 1.11717E-02	-7.70101E-01	 5.21393E-01	 7.79390E-04	 8.60219E+02	 1.15052E+01	 3.11381E+00	 2.50640E+00	 2.67494E+03	 4.06709E-01	 6.69381E-03	 4.06612E-01	 1.10983E-02	-9.20139E-01	 4.95318E-01	 7.54178E-04	 8.90532E+02	 9.99966E+00	 2.93883E+00	 2.33099E+00	 3.27716E+03	 3.80855E-01	 6.70346E-03	 3.80813E-01	 8.79232E-03	-9.70164E-01	 5.19885E-01	 6.13391E-04	 7.73753E+02	 4.75990E+00	 2.46338E+00
     4.836	 3.27005E+00	-3.08644E+00	-3.73310E-01	 3.99487E+00	 6.68350E+01	 9.54159E-01	-3.55872E-02	 9.49361E-01	 1.01974E-01	 4.80000E+00	 4.38358E-01	 1.83190E-02	 6.76717E+01	 1.30693E+01	 6.12958E-01	 2.15207E+00	 1.90156E+02	 7.78441E-01	-9.82476E-03	 7.77523E-01	 3.90497E-02	 4.19999E+00	 3.99424E-01	 8.04305E-03	 1.93021E+02	 2.39571E+01	 1.25779E+00	 6.49063E-01	 3.71096E+02	 6.17440E-01	 3.04165E-04	 6.17404E-01	 6.69025E-03	 3.65999E+00	 4.24333E-01	 4.05949E-03	 3.28936E+02	 2.46221E+01	 1.92524E+00	 3.26556E-01	 6.00141E+02	 5.33989E-01	 2.59495E-03	 5.33995E-01	 4.48535E-04	 2.72998E+00	 4.62777E-01	 2.37221E-03	 4.52361E+02	 2.19509E+01	 2.40341E+00	 9.18818E-01	 8.94168E+02	 4.78167E-01	 4.96134E-03	 4.78185E-01	 2.70705E-03	 1.63997E+00	 4.69569E-01	 1.71167E-03	 5.66300E+02	 1.94226E+01	 2.75097E+00	 1.63122E+00	 1.24141E+03	 4.68620E-01	 7.75041E-03	 4.68650E-01	 5.59262E-03	 5.89957E-01	 4.76246E-01	 1.32853E-03	 7.13803E+02	 1.58702E+01	 3.00154E+00	 2.08417E+00	 1.64371E+03	 4.34572E-01	 6.99974E-03	 4.34539E-01	 8.80928E-03	-2.70065E-01	 5.04879E-01	 9.93669E-04	 7.94826E+02	 1.23656E+01	 3.13178E+00	 2.37084E+00	 2.12350E+03	 4.18342E-01	 6.07222E-03	 4.18235E-01	 1.12386E-02	-7.70098E-01	 5.17073E-01	 8.12948E-04	 8.65630E+02	 1.16211E+01	 3.11719E+00	 2.52543E+00	 2.67769E+03	 4.07969E-01	 6.72920E-03	 4.07869E-01	 1.12536E-02	-9.20135E-01	 4.99989E-01	 7.64787E-04	 8.94207E+02	 1.03060E+01	 2.94033E+00	 2.36437E+00	 3.28123E+03	 3.83284E-01	 6.80496E-03	 3.83238E-01	 9.01297E-03	-9.70159E-01	 5.24150E-01	 6.31154E-04	 7.79655E+02	 5.13107E+00	 2.46491E+00
     4.840	 3.26450E+00	-3.08391E+00	-3.69775E-01	 3.86278E+00	 6.71348E+01	 9.47493E-01	-3.60993E-02	 9.42908E-01	 9.98472E-02	 4.80000E+00	 4.42176E-01	 1.79602E-02	 6.75219E+01	 1.29351E+01	 6.14331E-01	 2.15566E+00	 1.90910E+02	 8.20969E-01	-1.00131E-02	 8.20011E-01	 4.08863E-02	 4.19999E+00	 3.99438E-01	 8.01247E-03	 2.04382E+02	 2.52921E+01	 1.26028E+00	 5.79267E-01	 3.72189E+02	 6.28218E-01	-1.56156E-04	 6.28184E-01	 6.50739E-03	 3.65999E+00	 4.29277E-01	 3.97527E-03	 3.35676E+02	 2.49656E+01	 1.92807E+00	 2.64116E-01	 6.01741E+02	 5.27909E-01	 2.52196E-03	 5.27915E-01	-8.84377E-05	 2.72998E+00	 4.69847E-01	 2.31320E-03	 4.48424E+02	 2.13070E+01	 2.40661E+00	 9.75785E-01	 8.97402E+02	 4.59974E-01	 5.71133E-03	 4.60004E-01	 2.12278E-03	 1.63997E+00	 4.66108E-01	 1.74206E-03	 5.46755E+02	 1.81795E+01	 2.75594E+00	 1.75544E+00	 1.24632E+03	 4.78367E-01	 8.54294E-03	 4.78404E-01	 6.11511E-03	 5.89960E-01	 4.65201E-01	 1.39761E-03	 7.31530E+02	 1.68855E+01	 3.00746E+00	 2.15130E+00	 1.64754E+03	 4.36425E-01	 7.29490E-03	 4.36392E-01	 9.09294E-03	-2.70062E-01	 5.00275E-01	 1.02854E-03	 8.00078E+02	 1.28985E+01	 3.13543E+00	 2.44328E+00	 2.12809E+03	 4.26065E-01	 6.50977E-03	 4.25955E-01	 1.16594E-02	-7.70094E-01	 5.12002E-01	 8.49605E-04	 8.83515E+02	 1.23036E+01	 3.12056E+00	 2.53961E+00	 2.68076E+03	 4.09078E-01	 6.73229E-03	 4.08974E-01	 1.14006E-02	-9.20130E-01	 5.05508E-01	 7.73311E-04	 8.97661E+02	 1.06014E+01	 2.94202E+00	 2.40175E+00	 3.28552E+03	 3.86199E-01	 6.90348E-03	 3.86149E-01	 9.28673E-03	-9.70155E-01	 5.27552E-01	 6.51240E-04	 7.86611E+02	 5.59490E+00	 2.46652E+00
     4.844	 3.25169E+00	-3.06768E+00	-3.65161E-01	 3.73620E+00	 6.74253E+01	 9.39092E-01	-3.64436E-02	 9.34721E-01	 9.75599E-02	 4.80000E+00	 4.45942E-01	 1.76160E-02	 6.72339E+01	 1.27752E+01	 6.15659E-01	 2.15857E+00	 1.91639E+02	 8.20403E-01	-9.16447E-03	 8.19476E-01	 4.00586E-02	 4.19999E+00	 3.99494E-01	 7.98059E-03	 2.05044E+02	 2.51710E+01	 1.26268E+00	 5.07688E-01	 3.73223E+02	 5.88919E-01	 1.63469E-04	 5.88897E-01	 5.05478E-03	 3.65999E+00	 4.34534E-01	 3.88986E-03	 3.15593E+02	 2.29086E+01	 1.93075E+00	 2.38046E-01	 6.04116E+02	 5.07670E-01	 2.95074E-03	 5.07678E-01	-8.41512E-04	 2.72998E+00	 4.73818E-01	 2.28113E-03	 4.32967E+02	 1.99260E+01	 2.41136E+00	 1.04261E+00	 9.00845E+02	 4.80243E-01	 6.28399E-03	 4.80278E-01	 2.45558E-03	 1.63997E+00	 4.61739E-01	 1.77830E-03	 5.73034E+02	 1.93391E+01	 2.76122E+00	 1.88235E+00	 1.25135E+03	 4.84518E-01	 9.27555E-03	 4.84561E-01	 6.64454E-03	 5.89962E-01	 4.54360E-01	 1.46770E-03	 7.43929E+02	 1.78640E+01	 3.01352E+00	 2.21898E+00	 1.65141E+03	 4.39580E-01	 7.56253E-03	 4.39543E-01	 9.46316E-03	-2.70058E-01	 4.95748E-01	 1.06376E-03	 8.07750E+02	 1.35818E+01	 3.13911E+00	 2.51994E+00	 2.13258E+03	 4.32332E-01	 6.90507E-03	 4.32217E-01	 1.21100E-02	-7.70089E-01	 5.06431E-01	 8.88765E-04	 8.98404E+02	 1.30910E+01	 3.12385E+00	 2.55620E+00	 2.68415E+03	 4.10190E-01	 6.75512E-03	 4.10083E-01	 1.15458E-02	-9.20125E-01	 5.10672E-01	 7.83503E-04	 9.01235E+02	 1.08948E+01	 2.94388E+00	 2.42925E+00	 3.28946E+03	 3.88613E-01	 6.92474E-03	 3.88557E-01	 9.55310E-03	-9.70149E-01	 5.32649E-01	 6.67453E-04	 7.92472E+02	 6.06163E+00	 2.46800E+00
     4.848	 3.23088E+00	-3.04400E+00	-3.56113E-01	 3.61438E+00	 6.77057E+01	 9.31566E-01	-3.67074E-02	 9.27399E-01	 9.53612E-02	 4.80000E+00	 4.49693E-01	 1.72868E-02	 6.69934E+01	 1.26233E+01	 6.16938E-01	 2.15892E+00	 1.92341E+02	 8.15779E-01	-8.30604E-03	 8.14887E-01	 3.90316E-02	 4.20000E+00	 3.99701E-01	 7.94655E-03	 2.04657E+02	 2.49194E+01	 1.26499E+00	 4.32850E-01	 3.74189E+02	 5.58210E-01	 3.68985E-04	 5.58197E-01	 3.84808E-03	 3.65999E+00	 4.40247E-01	 3.80278E-03	 2.99947E+02	 2.12635E+01	 1.93324E+00	 2.27160E-01	 6.06809E+02	 5.09013E-01	 3.22766E-03	 5.09022E-01	-1.20956E-03	 2.72998E+00	 4.76496E-01	 2.26074E-03	 4.36064E+02	 1.97545E+01	 2.41673E+00	 1.11062E+00	 9.04181E+02	 5.02858E-01	 6.84433E-03	 5.02896E-01	 2.90377E-03	 1.63998E+00	 4.57358E-01	 1.81556E-03	 6.02232E+02	 2.07231E+01	 2.76633E+00	 2.01037E+00	 1.25651E+03	 4.91139E-01	 9.95198E-03	 4.91186E-01	 7.28345E-03	 5.89965E-01	 4.43840E-01	 1.53828E-03	 7.57203E+02	 1.90280E+01	 3.01973E+00	 2.30353E+00	 1.65622E+03	 4.43631E-01	 7.92362E-03	 4.43591E-01	 9.91381E-03	-2.70055E-01	 4.88946E-01	 1.10811E-03	 8.17570E+02	 1.44168E+01	 3.14368E+00	 2.60053E+00	 2.13696E+03	 4.37379E-01	 7.26417E-03	 4.37258E-01	 1.25882E-02	-7.70084E-01	 5.00364E-01	 9.30309E-04	 9.10758E+02	 1.39726E+01	 3.12705E+00	 2.57746E+00	 2.68777E+03	 4.11984E-01	 6.80608E-03	 4.11873E-01	 1.17277E-02	-9.20119E-01	 5.15027E-01	 7.96258E-04	 9.06398E+02	 1.12466E+01	 2.94587E+00	 2.44793E+00	 3.29352E+03	 3.90195E-01	 6.89958E-03	 3.90133E-01	 9.77250E-03	-9.70144E-01	 5.39313E-01	 6.80089E-04	 7.96675E+02	 6.46251E+00	 2.46952E+00
     4.852	 3.20904E+00	-3.02443E+00	-3.43458E-01	 3.49600E+00	 6.79761E+01	 9.24896E-01	-3.69197E-02	 9.20924E-01	 9.32500E-02	 4.80000E+00	 4.53464E-01	 1.69712E-02	 6.68001E+01	 1.24795E+01	 6.18168E-01	 2.15485E+00	 1.93014E+02	 8.12725E-01	-7.59051E-03	 8.11865E-01	 3.81439E-02	 4.20000E+00	 4.00121E-01	 7.90858E-03	 2.04625E+02	 2.47259E+01	 1.26720E+00	 3.53721E-01	 3.75083E+02	 5.46841E-01	 2.60592E-04	 5.46832E-01	 3.11536E-03	 3.65999E+00	 4.46486E-01	 3.71337E-03	 2.94564E+02	 2.05277E+01	 1.93555E+00	 2.19130E-01	 6.09584E+02	 5.22080E-01	 3.37826E-03	 5.22089E-01	-1.38152E-03	 2.72998E+00	 4.78960E-01	 2.24298E-03	 4.49309E+02	 2.02330E+01	 2.42225E+00	 1.18698E+00	 9.07227E+02	 5.08936E-01	 7.48081E-03	 5.08982E-01	 3.06350E-03	 1.63998E+00	 4.52280E-01	 1.85865E-03	 6.11569E+02	 2.11943E+01	 2.77098E+00	 2.13437E+00	 1.26172E+03	 4.98636E-01	 1.05440E-02	 4.98683E-01	 8.03407E-03	 5.89967E-01	 4.34117E-01	 1.60635E-03	 7.71938E+02	 2.03886E+01	 3.02599E+00	 2.38572E+00	 1.66123E+03	 4.51190E-01	 8.24126E-03	 4.51142E-01	 1.05474E-02	-2.70051E-01	 4.82582E-01	 1.15126E-03	 8.34003E+02	 1.55658E+01	 3.14842E+00	 2.68537E+00	 2.14121E+03	 4.42955E-01	 7.60114E-03	 4.42825E-01	 1.31603E-02	-7.70080E-01	 4.93788E-01	 9.74476E-04	 9.24202E+02	 1.50379E+01	 3.13016E+00	 2.60336E+00	 2.69161E+03	 4.14357E-01	 6.87772E-03	 4.14242E-01	 1.19502E-02	-9.20114E-01	 5.18530E-01	 8.11577E-04	 9.12917E+02	 1.16689E+01	 2.94797E+00	 2.46436E+00	 3.29801E+03	 3.91702E-01	 6.87796E-03	 3.91636E-01	 9.97074E-03	-9.70139E-01	 5.46306E-01	 6.92010E-04	 8.00839E+02	 6.82462E+00	 2.47120E+00
     4.856	 3.18666E+00	-3.00952E+00	-3.28321E-01	 3.38229E+00	 6.82376E+01	 9.17562E-01	-3.70190E-02	 9.13779E-01	 9.10886E-02	 4.80000E+00	 4.57218E-01	 1.66703E-02	 6.65458E+01	 1.23247E+01	 6.19356E-01	 2.14650E+00	 1.93657E+02	 8.06492E-01	-6.90574E-03	 8.05668E-01	 3.71078E-02	 4.20000E+00	 4.00764E-01	 7.86656E-03	 2.03754E+02	 2.44299E+01	 1.26931E+00	 2.70884E-01	 3.75902E+02	 5.38040E-01	 1.05833E-04	 5.38035E-01	 2.43791E-03	 3.65999E+00	 4.53270E-01	 3.62182E-03	 2.90480E+02	 1.99028E+01	 1.93766E+00	 2.78710E-01	 6.12718E+02	 5.06274E-01	 4.38599E-03	 5.06290E-01	-1.92322E-03	 2.72998E+00	 4.75175E-01	 2.27648E-03	 4.37976E+02	 1.92169E+01	 2.42847E+00	 1.25965E+00	 9.10405E+02	 5.14458E-01	 8.03478E-03	 5.14510E-01	 3.27661E-03	 1.63998E+00	 4.47616E-01	 1.89906E-03	 6.20370E+02	 2.17165E+01	 2.77583E+00	 2.21589E+00	 1.26626E+03	 5.07623E-01	 1.07541E-02	 5.07659E-01	 8.88114E-03	 5.89970E-01	 4.28844E-01	 1.64968E-03	 7.88650E+02	 2.19218E+01	 3.03143E+00	 2.47079E+00	 1.66654E+03	 4.57815E-01	 8.54850E-03	 4.57758E-01	 1.11958E-02	-2.70047E-01	 4.75938E-01	 1.19615E-03	 8.48942E+02	 1.67602E+01	 3.15345E+00	 2.77462E+00	 2.14533E+03	 4.49322E-01	 7.92572E-03	 4.49179E-01	 1.38340E-02	-7.70075E-01	 4.86710E-01	 1.02133E-03	 9.39277E+02	 1.62966E+01	 3.13317E+00	 2.63339E+00	 2.69559E+03	 4.17066E-01	 6.96192E-03	 4.16946E-01	 1.22076E-02	-9.20109E-01	 5.21201E-01	 8.29399E-04	 9.20242E+02	 1.21584E+01	 2.95015E+00	 2.47841E+00	 3.30289E+03	 3.93269E-01	 6.85583E-03	 3.93198E-01	 1.01567E-02	-9.70134E-01	 5.53612E-01	 7.03335E-04	 8.05227E+02	 7.16132E+00	 2.47303E+00
     4.860	 3.16424E+00	-2.99985E+00	-3.11950E-01	 3.27504E+00	 6.84910E+01	 9.09792E-01	-3.69872E-02	 9.06193E-01	 8.89025E-02	 4.80000E+00	 4.60877E-01	 1.63853E-02	 6.62473E+01	 1.21624E+01	 6.20505E-01	 2.13427E+00	 1.94269E+02	 7.98094E-01	-6.26609E-03	 7.97307E-01	 3.59840E-02	 4.20000E+00	 4.01608E-01	 7.81989E-03	 2.02290E+02	 2.40648E+01	 1.27132E+00	 1.85163E-01	 3.76641E+02	 5.29040E-01	-4.12753E-05	 5.29037E-01	 1.75097E-03	 3.65999E+00	 4.60595E-01	 3.52848E-03	 2.86207E+02	 1.92588E+01	 1.93957E+00	 3.95376E-01	 6.16083E+02	 5.12478E-01	 5.59113E-03	 5.12504E-01	-2.05461E-03	 2.72998E+00	 4.66313E-01	 2.35236E-03	 4.45791E+02	 1.94659E+01	 2.43513E+00	 1.32975E+00	 9.13708E+02	 5.17847E-01	 8.52081E-03	 5.17906E-01	 3.49887E-03	 1.63998E+00	 4.43275E-01	 1.93751E-03	 6.26723E+02	 2.21819E+01	 2.78087E+00	 2.29216E+00	 1.27095E+03	 5.06005E-01	 1.08434E-02	 5.06034E-01	 9.40301E-03	 5.89972E-01	 4.24177E-01	 1.68979E-03	 7.89026E+02	 2.27907E+01	 3.03704E+00	 2.61246E+00	 1.67322E+03	 4.64297E-01	 9.24578E-03	 4.64235E-01	 1.19266E-02	-2.70044E-01	 4.62442E-01	 1.27155E-03	 8.64413E+02	 1.81311E+01	 3.15977E+00	 2.86192E+00	 2.14928E+03	 4.56228E-01	 8.19817E-03	 4.56069E-01	 1.45912E-02	-7.70070E-01	 4.80090E-01	 1.06770E-03	 9.55458E+02	 1.77183E+01	 3.13606E+00	 2.66743E+00	 2.69968E+03	 4.20054E-01	 7.05540E-03	 4.19927E-01	 1.25010E-02	-9.20103E-01	 5.23042E-01	 8.49605E-04	 9.28235E+02	 1.27193E+01	 2.95238E+00	 2.49025E+00	 3.30807E+03	 3.94681E-01	 6.83228E-03	 3.94605E-01	 1.03228E-02	-9.70128E-01	 5.61155E-01	 7.14004E-04	 8.09383E+02	 7.46432E+00	 2.47497E+00
     4.864	 3.14236E+00	-2.99606E+00	-2.95714E-01	 3.15487E+00	 6.89152E+01	 9.08452E-01	-3.73621E-02	 9.05019E-01	 8.73022E-02	 4.80000E+00	 4.64751E-01	 1.60560E-02	 6.65805E+01	 1.21117E+01	 6.22424E-01	 2.11636E+00	 1.94847E+02	 7.92145E-01	-5.78469E-03	 7.91391E-01	 3.50339E-02	 4.20000E+00	 4.02759E-01	 7.76762E-03	 2.01399E+02	 2.37828E+01	 1.27321E+00	 9.56286E-02	 3.77294E+02	 5.21211E-01	-2.13450E-04	 5.21210E-01	 1.08337E-03	 3.65999E+00	 4.68599E-01	 3.43311E-03	 2.82483E+02	 1.86589E+01	 1.94125E+00	 5.11580E-01	 6.19401E+02	 5.56587E-01	 6.54443E-03	 5.56623E-01	-1.57461E-03	 2.72999E+00	 4.57811E-01	 2.42752E-03	 4.86747E+02	 2.18298E+01	 2.44167E+00	 1.39743E+00	 9.17128E+02	 5.19442E-01	 8.94250E-03	 5.19506E-01	 3.72802E-03	 1.63998E+00	 4.39264E-01	 1.97423E-03	 6.31006E+02	 2.25991E+01	 2.78606E+00	 2.36320E+00	 1.27579E+03	 5.06032E-01	 1.09023E-02	 5.06051E-01	 9.97259E-03	 5.89975E-01	 4.20119E-01	 1.72681E-03	 7.92047E+02	 2.37695E+01	 3.04281E+00	 2.75582E+00	 1.68009E+03	 4.81006E-01	 9.94840E-03	 4.80928E-01	 1.31896E-02	-2.70040E-01	 4.49488E-01	 1.34796E-03	 8.99176E+02	 2.04197E+01	 3.16624E+00	 2.92477E+00	 2.15314E+03	 4.62099E-01	 8.26169E-03	 4.61919E-01	 1.53276E-02	-7.70065E-01	 4.76954E-01	 1.10209E-03	 9.69466E+02	 1.91301E+01	 3.13887E+00	 2.72120E+00	 2.70402E+03	 4.24245E-01	 7.25755E-03	 4.24111E-01	 1.28921E-02	-9.20097E-01	 5.21345E-01	 8.79824E-04	 9.39000E+02	 1.34567E+01	 2.95475E+00	 2.50064E+00	 3.31352E+03	 3.95949E-01	 6.81078E-03	 3.95869E-01	 1.04712E-02	-9.70122E-01	 5.68707E-01	 7.24316E-04	 8.13315E+02	 7.73745E+00	 2.47701E+00
     4.868	 3.15792E+00	-2.98643E+00	-2.71863E-01	 3.03668E+00	 6.93696E+01	 8.98920E-01	-3.74061E-02	 8.95676E-01	 8.49741E-02	 4.80000E+00	 4.68651E-01	 1.57341E-02	 6.63365E+01	 1.19592E+01	 6.24472E-01	 2.06761E+00	 1.95302E+02	 8.14956E-01	-6.31465E-03	 8.14198E-01	 3.57132E-02	 4.20000E+00	 4.05333E-01	 7.68137E-03	 2.07694E+02	 2.44409E+01	 1.27469E+00	 3.57304E-04	 3.77857E+02	 5.14432E-01	-4.25863E-04	 5.14432E-01	 4.29071E-04	 3.65999E+00	 4.77463E-01	 3.33470E-03	 2.79248E+02	 1.80962E+01	 1.94269E+00	 6.25410E-01	 6.22666E+02	 5.83342E-01	 7.60073E-03	 5.83390E-01	-1.23295E-03	 2.72999E+00	 4.49757E-01	 2.50119E-03	 5.12826E+02	 2.33671E+01	 2.44810E+00	 1.46080E+00	 9.20657E+02	 5.21477E-01	 9.29223E-03	 5.21545E-01	 4.00485E-03	 1.63998E+00	 4.35653E-01	 2.00856E-03	 6.35910E+02	 2.30948E+01	 2.79142E+00	 2.42663E+00	 1.28079E+03	 5.10306E-01	 1.09362E-02	 5.10311E-01	 1.06800E-02	 5.89977E-01	 4.16746E-01	 1.75995E-03	 8.01833E+02	 2.50433E+01	 3.04876E+00	 2.89839E+00	 1.68715E+03	 4.95404E-01	 1.05785E-02	 4.95305E-01	 1.44851E-02	-2.70036E-01	 4.37174E-01	 1.42437E-03	 9.29960E+02	 2.28103E+01	 3.17290E+00	 2.98494E+00	 2.15688E+03	 4.65441E-01	 8.30262E-03	 4.65242E-01	 1.59458E-02	-7.70060E-01	 4.74062E-01	 1.13571E-03	 9.78150E+02	 2.03687E+01	 3.14159E+00	 2.79667E+00	 2.70845E+03	 4.30793E-01	 7.56116E-03	 4.30648E-01	 1.34670E-02	-9.20092E-01	 5.15795E-01	 9.21369E-04	 9.55047E+02	 1.45203E+01	 2.95717E+00	 2.53716E+00	 3.31897E+03	 3.99005E-01	 6.94351E-03	 3.98921E-01	 1.07261E-02	-9.70116E-01	 5.70507E-01	 7.47442E-04	 8.20941E+02	 8.16836E+00	 2.47904E+00
     4.872	 3.19008E+00	-2.97415E+00	-2.41775E-01	 2.92565E+00	 6.98270E+01	 8.87927E-01	-3.72598E-02	 8.84868E-01	 8.25311E-02	 4.80000E+00	 4.72401E-01	 1.54305E-02	 6.59771E+01	 1.17862E+01	 6.26528E-01	 1.99332E+00	 1.95626E+02	 8.07625E-01	-6.58676E-03	 8.06908E-01	 3.46744E-02	 4.20000E+00	 4.09129E-01	 7.56645E-03	 2.06188E+02	 2.40778E+01	 1.27575E+00	-5.42590E-02	 3.78560E+02	 4.77044E-01	 3.24422E-04	 4.77044E-01	-7.76182E-04	 3.65999E+00	 4.83468E-01	 3.27379E-03	 2.59475E+02	 1.61737E+01	 1.94450E+00	 7.38331E-01	 6.25873E+02	 5.89476E-01	 8.66638E-03	 5.89538E-01	-1.06971E-03	 2.72999E+00	 4.42012E-01	 2.57391E-03	 5.20892E+02	 2.38907E+01	 2.45440E+00	 1.52179E+00	 9.24285E+02	 5.23047E-01	 9.59248E-03	 5.23118E-01	 4.30155E-03	 1.63999E+00	 4.32287E-01	 2.04140E-03	 6.40331E+02	 2.36042E+01	 2.79691E+00	 2.48401E+00	 1.28595E+03	 5.14670E-01	 1.09327E-02	 5.14660E-01	 1.13836E-02	 5.89980E-01	 4.13941E-01	 1.78963E-03	 8.11913E+02	 2.63251E+01	 3.05490E+00	 3.04129E+00	 1.69444E+03	 5.06177E-01	 1.11346E-02	 5.06055E-01	 1.57365E-02	-2.70032E-01	 4.25413E-01	 1.50120E-03	 9.54258E+02	 2.51730E+01	 3.17975E+00	 3.04343E+00	 2.16045E+03	 4.69912E-01	 8.34486E-03	 4.69692E-01	 1.66159E-02	-7.70055E-01	 4.71340E-01	 1.16909E-03	 9.89159E+02	 2.16872E+01	 3.14420E+00	 2.87714E+00	 2.71267E+03	 4.38335E-01	 7.83867E-03	 4.38176E-01	 1.41732E-02	-9.20085E-01	 5.09375E-01	 9.66191E-04	 9.73272E+02	 1.58425E+01	 2.95948E+00	 2.58300E+00	 3.32456E+03	 4.03460E-01	 7.08683E-03	 4.03369E-01	 1.11029E-02	-9.70110E-01	 5.69852E-01	 7.75635E-04	 8.31502E+02	 8.80330E+00	 2.48113E+00
     4.876	 3.25924E+00	-2.97654E+00	-2.27357E-01	 2.82539E+00	 7.02896E+01	 8.78957E-01	-3.70034E-02	 8.76065E-01	 8.02843E-02	 4.80000E+00	 4.75883E-01	 1.51498E-02	 6.57625E+01	 1.16384E+01	 6.28600E-01	 1.92086E+00	 1.95903E+02	 7.49274E-01	-5.72949E-03	 7.48661E-01	 3.08412E-02	 4.20000E+00	 4.13009E-01	 7.45451E-03	 1.91601E+02	 2.20300E+01	 1.27665E+00	-3.70743E-02	 3.79576E+02	 4.43159E-01	 1.53600E-03	 4.43158E-01	-1.82275E-03	 3.65999E+00	 4.83878E-01	 3.27724E-03	 2.41729E+02	 1.44643E+01	 1.94711E+00	 8.14527E-01	 6.28311E+02	 6.02521E-01	 9.30430E-03	 6.02592E-01	-7.38103E-04	 2.72999E+00	 4.37590E-01	 2.62016E-03	 5.34486E+02	 2.48299E+01	 2.45917E+00	 1.58198E+00	 9.28002E+02	 5.24741E-01	 9.86352E-03	 5.24813E-01	 4.62691E-03	 1.63999E+00	 4.29063E-01	 2.07347E-03	 6.44979E+02	 2.41588E+01	 2.80253E+00	 2.53617E+00	 1.29128E+03	 5.18880E-01	 1.09004E-02	 5.18854E-01	 1.20707E-02	 5.89982E-01	 4.11637E-01	 1.81627E-03	 8.21914E+02	 2.75914E+01	 3.06122E+00	 3.18469E+00	 1.70199E+03	 5.16945E-01	 1.16528E-02	 5.16794E-01	 1.70839E-02	-2.70029E-01	 4.14176E-01	 1.57857E-03	 9.78856E+02	 2.77408E+01	 3.18682E+00	 3.10043E+00	 2.16383E+03	 4.75380E-01	 8.38843E-03	 4.75137E-01	 1.73353E-02	-7.70050E-01	 4.68776E-01	 1.20234E-03	 1.00221E+03	 2.30837E+01	 3.14665E+00	 2.96273E+00	 2.71664E+03	 4.45549E-01	 8.09843E-03	 4.45372E-01	 1.49412E-02	-9.20080E-01	 5.02156E-01	 1.01447E-03	 9.90725E+02	 1.73163E+01	 2.96164E+00	 2.65399E+00	 3.32933E+03	 4.09388E-01	 7.33288E-03	 4.09288E-01	 1.16314E-02	-9.70104E-01	 5.63654E-01	 8.17001E-04	 8.44927E+02	 9.69965E+00	 2.48291E+00
