
This summary file was generated by TurbSim on 06-Feb-2019 at 12:20:16.


Runtime Options:

  33036877  Random seed #1
    RANLUX  Type of random number generator
         F  Output binary HH turbulence parameters?
         F  Output formatted turbulence parameters?
         F  Output AeroDyn HH files?
         T  Output AeroDyn FF files?
         F  Output BLADED FF files?
         F  Output tower data?
         F  Output formatted FF files?
         F  Output coherent turbulence time step file?
         T  Clockwise rotation when looking downwind?
 0 -  NONE  IEC turbulence models scaled to exact specified standard deviation


Turbine/Model Specifications:

        30  Vertical grid-point matrix dimension
        30  Horizontal grid-point matrix dimension
     0.050  Time step [seconds]
   630.000  Analysis time [seconds]
   630.000  Usable output time [seconds]
    90.000  Hub height [m]
   138.000  Grid height [m]
   138.000  Grid width [m]
     0.000  Vertical flow angle [degrees]
     0.000  Horizontal flow angle [degrees]


Meteorological Boundary Conditions:

    USRINP  Uniform user-input spectral model
       N/A  IEC standard
       N/A  IEC turbulence characteristic
       N/A  IEC turbulence type
       N/A  IEC Extreme Turbulence Model (ETM) "c" parameter [m/s]
       USR  Wind profile type
    90.000  Reference height [m]
       N/A  Reference wind speed [m/s]
       N/A  Jet height [m]
       N/A  Power law exponent
     0.030  Surface roughness length [m]


Non-IEC Meteorological Boundary Conditions:

    45.000  Site latitude [degrees]
     0.000  Gradient Richardson number
     0.400  Friction or shear velocity [m/s]
       N/A  Mixing layer depth [m]
    -0.850  Mean hub u'w' Reynolds stress
     0.150  Mean hub u'v' Reynolds stress
    -0.100  Mean hub v'w' Reynolds stress


Spatial Coherence Models:

   GENERAL  u-component coherence model
   GENERAL  v-component coherence model
   GENERAL  w-component coherence model
(   13.750, 0.400E-01)  u-component coherence parameters
(    9.850, 0.150E-02)  v-component coherence parameters
(    9.500, 0.300E-02)  w-component coherence parameters
     0.500  Coherence exponent


User-Defined Profiles:

  Height   Wind Speed   Horizontal Angle
   (m)        (m/s)          (deg)      
  ------   ----------   ----------------
  160.00      11.97          13.89
  150.00      11.44          11.90
  140.00      10.90           9.92
  130.00      10.35           7.94
  120.00       9.79           5.95
  110.00       9.21           3.97
  100.00       8.61           1.98
   90.00       8.00           0.00
   80.00       7.37         358.02
   70.00       6.71         356.03
   60.00       6.02         354.05
   50.00       5.30         352.06
   40.00       4.54         350.08
   30.00       3.71         348.10
   20.00       2.79         346.11
   10.00       1.72         344.13
    0.00       0.00         342.14


You have requested that the following file(s) be generated:

   ./turbsim_default.bts (AeroDyn/TurbSim full-field wind file)


Turbulence Simulation Scaling Parameter Summary:

   Turbulence model used                            =  Uniform user-input
   Gradient Richardson number                       =    0.000
   Monin-Obukhov (M-O) z/L parameter                =    0.000
   Monin-Obukhov (M-O) length scale                 =  Infinite
   Mean wind speed at hub height                    =    8.000 m/s

   Wind profile type                                =  Linear interpolation of user-defined profile
   Equivalent power law exponent across rotor disk  =    0.701
   Mean shear across rotor disk                     =    0.065 (m/s)/m
   Assumed rotor diameter                           =  138.000 m
   Surface roughness length                         =    0.030 m

   Nyquist frequency of turbulent wind field        =   10.000 Hz

   Number of time steps in the FFT                  =    12600
   Number of time steps output                      =    12600
   Number of points simulated                       =      901


Mean Flow Angles:

   Vertical   =   0.0 degrees
   Horizontal =   0.0 degrees

Mean Wind Speed Profile:

   Height    Wind Speed   Horizontal Angle  Vertical Angle  U-comp (X)   V-comp (Y)   W-comp (Z)
